<?xml version="1.0" encoding="UTF-8"?>

<!-- generated on Fri Sep 29 15:02:44 2017 by SUMO jtrrouter Version 0.30.0
<?xml version="1.0" encoding="UTF-8"?>

<configuration xmlns:xsi="http://www.w3.org/2001/XMLSchema-instance" xsi:noNamespaceSchemaLocation="http://sumo.dlr.de/xsd/jtrrouterConfiguration.xsd">

    <input>
        <net-file value="scenarios/3_cross/randersvej.net.xml"/>
        <flow-files value="/tmp/tmp09_jbwib"/>
        <turn-ratio-files value="scenarios/3_cross/turn_probs"/>
    </input>

    <output>
        <output-file value="/tmp/tmp_mee70bb"/>
    </output>

    <processing>
        <turn-defaults value="20,70,10"/>
        <accept-all-destinations value="true"/>
    </processing>

    <random_number>
        <seed value="0"/>
    </random_number>

</configuration>
-->

<routes xmlns:xsi="http://www.w3.org/2001/XMLSchema-instance" xsi:noNamespaceSchemaLocation="http://sumo.dlr.de/xsd/routes_file.xsd">
    <vehicle id="8.0" depart="0.00">
        <route edges="Is nd_east_in nd_south_out Je"/>
    </vehicle>
    <vehicle id="8.1" depart="1.00">
        <route edges="Is nd_east_in nd_west_out He"/>
    </vehicle>
    <vehicle id="7.0" depart="2.00">
        <route edges="Hs nd_west_in nd_east_out Ie"/>
    </vehicle>
    <vehicle id="7.1" depart="4.00">
        <route edges="Hs nd_west_in nd_east_out Ie"/>
    </vehicle>
    <vehicle id="9.0" depart="4.00">
        <route edges="Js nd_south_in nd_east_out Ie"/>
    </vehicle>
    <vehicle id="5.0" depart="5.00">
        <route edges="Fs st_north_out -gneE12 mc_south_in De"/>
    </vehicle>
    <vehicle id="2.0" depart="6.00">
        <route edges="Cs Be"/>
    </vehicle>
    <vehicle id="7.2" depart="6.00">
        <route edges="Hs nd_west_in nd_east_out Ie"/>
    </vehicle>
    <vehicle id="9.1" depart="6.00">
        <route edges="Js nd_south_in nd_north_out st_south_in st_north_out -gneE12 mc_south_in mc_north_out -gneE3 hr_south_in Ae"/>
    </vehicle>
    <vehicle id="1.0" depart="8.00">
        <route edges="Bs Ae"/>
    </vehicle>
    <vehicle id="2.1" depart="8.00">
        <route edges="Cs Be"/>
    </vehicle>
    <vehicle id="7.3" depart="8.00">
        <route edges="Hs nd_west_in nd_east_out Ie"/>
    </vehicle>
    <vehicle id="7.4" depart="9.00">
        <route edges="Hs nd_west_in nd_east_out Ie"/>
    </vehicle>
    <vehicle id="9.2" depart="9.00">
        <route edges="Js nd_south_in nd_north_out st_south_in st_north_out -gneE12 mc_south_in Ee"/>
    </vehicle>
    <vehicle id="2.2" depart="10.00">
        <route edges="Cs Be"/>
    </vehicle>
    <vehicle id="7.5" depart="10.00">
        <route edges="Hs nd_west_in nd_east_out Ie"/>
    </vehicle>
    <vehicle id="7.6" depart="11.00">
        <route edges="Hs nd_west_in nd_east_out Ie"/>
    </vehicle>
    <vehicle id="9.3" depart="12.00">
        <route edges="Js nd_south_in nd_west_out He"/>
    </vehicle>
    <vehicle id="7.7" depart="13.00">
        <route edges="Hs nd_west_in nd_east_out Ie"/>
    </vehicle>
    <vehicle id="5.1" depart="14.00">
        <route edges="Fs st_north_out -gneE12 mc_south_in De"/>
    </vehicle>
    <vehicle id="7.8" depart="14.00">
        <route edges="Hs nd_west_in nd_north_out st_south_in st_north_out -gneE12 mc_south_in mc_north_out -gneE3 hr_south_in Ae"/>
    </vehicle>
    <vehicle id="0.0" depart="15.00">
        <route edges="As hr_south_out gneE3 mc_north_in mc_south_out gneE12 st_north_in st_south_out nd_north_in nd_south_out Je"/>
    </vehicle>
    <vehicle id="1.1" depart="16.00">
        <route edges="Bs Ce"/>
    </vehicle>
    <vehicle id="7.9" depart="16.00">
        <route edges="Hs nd_west_in nd_east_out Ie"/>
    </vehicle>
    <vehicle id="9.4" depart="16.00">
        <route edges="Js nd_south_in nd_north_out st_south_in st_north_out -gneE12 mc_south_in mc_north_out -gneE3 hr_south_in Be"/>
    </vehicle>
    <vehicle id="3.0" depart="17.00">
        <route edges="Ds Ee"/>
    </vehicle>
    <vehicle id="7.10" depart="17.00">
        <route edges="Hs nd_west_in nd_south_out Je"/>
    </vehicle>
    <vehicle id="3.1" depart="18.00">
        <route edges="Ds mc_south_out gneE12 st_north_in st_south_out nd_north_in nd_south_out Je"/>
    </vehicle>
    <vehicle id="4.0" depart="18.00">
        <route edges="Es mc_north_out -gneE3 hr_south_in Be"/>
    </vehicle>
    <vehicle id="9.5" depart="18.00">
        <route edges="Js nd_south_in nd_east_out Ie"/>
    </vehicle>
    <vehicle id="9.6" depart="19.00">
        <route edges="Js nd_south_in nd_north_out st_south_in st_north_out -gneE12 mc_south_in mc_north_out -gneE3 hr_south_in Ce"/>
    </vehicle>
    <vehicle id="4.1" depart="20.00">
        <route edges="Es mc_south_out gneE12 st_north_in Ge"/>
    </vehicle>
    <vehicle id="7.11" depart="20.00">
        <route edges="Hs nd_west_in nd_south_out Je"/>
    </vehicle>
    <vehicle id="7.12" depart="21.00">
        <route edges="Hs nd_west_in nd_east_out Ie"/>
    </vehicle>
    <vehicle id="2.3" depart="22.00">
        <route edges="Cs Be"/>
    </vehicle>
    <vehicle id="9.7" depart="22.00">
        <route edges="Js nd_south_in nd_east_out Ie"/>
    </vehicle>
    <vehicle id="1.2" depart="25.00">
        <route edges="Bs Ae"/>
    </vehicle>
    <vehicle id="8.2" depart="25.00">
        <route edges="Is nd_east_in nd_north_out st_south_in st_north_out -gneE12 mc_south_in mc_north_out -gneE3 hr_south_in Ae"/>
    </vehicle>
    <vehicle id="9.8" depart="25.00">
        <route edges="Js nd_south_in nd_north_out st_south_in st_north_out -gneE12 mc_south_in mc_north_out -gneE3 hr_south_in Ae"/>
    </vehicle>
    <vehicle id="9.9" depart="26.00">
        <route edges="Js nd_south_in nd_north_out st_south_in st_north_out -gneE12 mc_south_in mc_north_out -gneE3 hr_south_in Ae"/>
    </vehicle>
    <vehicle id="2.4" depart="27.00">
        <route edges="Cs Ae"/>
    </vehicle>
    <vehicle id="4.2" depart="27.00">
        <route edges="Es mc_north_out -gneE3 hr_south_in Be"/>
    </vehicle>
    <vehicle id="8.3" depart="27.00">
        <route edges="Is nd_east_in nd_west_out He"/>
    </vehicle>
    <vehicle id="0.1" depart="28.00">
        <route edges="As hr_south_out gneE3 mc_north_in Ee"/>
    </vehicle>
    <vehicle id="2.5" depart="28.00">
        <route edges="Cs Be"/>
    </vehicle>
    <vehicle id="7.13" depart="28.00">
        <route edges="Hs nd_west_in nd_east_out Ie"/>
    </vehicle>
    <vehicle id="8.4" depart="28.00">
        <route edges="Is nd_east_in nd_west_out He"/>
    </vehicle>
    <vehicle id="2.6" depart="29.00">
        <route edges="Cs Be"/>
    </vehicle>
    <vehicle id="8.5" depart="29.00">
        <route edges="Is nd_east_in nd_west_out He"/>
    </vehicle>
    <vehicle id="0.2" depart="30.00">
        <route edges="As Ce"/>
    </vehicle>
    <vehicle id="7.14" depart="30.00">
        <route edges="Hs nd_west_in nd_south_out Je"/>
    </vehicle>
    <vehicle id="8.6" depart="30.00">
        <route edges="Is nd_east_in nd_west_out He"/>
    </vehicle>
    <vehicle id="0.3" depart="32.00">
        <route edges="As Ce"/>
    </vehicle>
    <vehicle id="8.7" depart="32.00">
        <route edges="Is nd_east_in nd_west_out He"/>
    </vehicle>
    <vehicle id="1.3" depart="33.00">
        <route edges="Bs Ce"/>
    </vehicle>
    <vehicle id="4.3" depart="34.00">
        <route edges="Es mc_south_out gneE12 st_north_in st_south_out nd_north_in nd_south_out Je"/>
    </vehicle>
    <vehicle id="0.4" depart="37.00">
        <route edges="As Be"/>
    </vehicle>
    <vehicle id="6.0" depart="37.00">
        <route edges="Gs st_south_out nd_north_in nd_south_out Je"/>
    </vehicle>
    <vehicle id="7.15" depart="37.00">
        <route edges="Hs nd_west_in nd_east_out Ie"/>
    </vehicle>
    <vehicle id="2.7" depart="41.00">
        <route edges="Cs Be"/>
    </vehicle>
    <vehicle id="8.8" depart="41.00">
        <route edges="Is nd_east_in nd_west_out He"/>
    </vehicle>
    <vehicle id="8.9" depart="42.00">
        <route edges="Is nd_east_in nd_west_out He"/>
    </vehicle>
    <vehicle id="4.4" depart="43.00">
        <route edges="Es mc_south_out gneE12 st_north_in st_south_out nd_north_in nd_west_out He"/>
    </vehicle>
    <vehicle id="7.16" depart="43.00">
        <route edges="Hs nd_west_in nd_east_out Ie"/>
    </vehicle>
    <vehicle id="8.10" depart="43.00">
        <route edges="Is nd_east_in nd_west_out He"/>
    </vehicle>
    <vehicle id="5.2" depart="44.00">
        <route edges="Fs st_south_out nd_north_in nd_east_out Ie"/>
    </vehicle>
    <vehicle id="7.17" depart="44.00">
        <route edges="Hs nd_west_in nd_east_out Ie"/>
    </vehicle>
    <vehicle id="1.4" depart="45.00">
        <route edges="Bs hr_south_out gneE3 mc_north_in Ee"/>
    </vehicle>
    <vehicle id="8.11" depart="45.00">
        <route edges="Is nd_east_in nd_west_out He"/>
    </vehicle>
    <vehicle id="9.10" depart="45.00">
        <route edges="Js nd_south_in nd_north_out st_south_in st_north_out -gneE12 mc_south_in Ee"/>
    </vehicle>
    <vehicle id="8.12" depart="46.00">
        <route edges="Is nd_east_in nd_south_out Je"/>
    </vehicle>
    <vehicle id="7.18" depart="47.00">
        <route edges="Hs nd_west_in nd_east_out Ie"/>
    </vehicle>
    <vehicle id="9.11" depart="47.00">
        <route edges="Js nd_south_in nd_north_out st_south_in st_north_out -gneE12 mc_south_in mc_north_out -gneE3 hr_south_in Ae"/>
    </vehicle>
    <vehicle id="0.5" depart="48.00">
        <route edges="As Be"/>
    </vehicle>
    <vehicle id="2.8" depart="48.00">
        <route edges="Cs Ae"/>
    </vehicle>
    <vehicle id="5.3" depart="48.00">
        <route edges="Fs st_south_out nd_north_in nd_south_out Je"/>
    </vehicle>
    <vehicle id="8.13" depart="48.00">
        <route edges="Is nd_east_in nd_west_out He"/>
    </vehicle>
    <vehicle id="5.4" depart="51.00">
        <route edges="Fs st_north_out -gneE12 mc_south_in Ee"/>
    </vehicle>
    <vehicle id="8.14" depart="51.00">
        <route edges="Is nd_east_in nd_west_out He"/>
    </vehicle>
    <vehicle id="0.6" depart="52.00">
        <route edges="As hr_south_out gneE3 mc_north_in mc_south_out gneE12 st_north_in st_south_out nd_north_in nd_west_out He"/>
    </vehicle>
    <vehicle id="1.5" depart="52.00">
        <route edges="Bs Ce"/>
    </vehicle>
    <vehicle id="8.15" depart="52.00">
        <route edges="Is nd_east_in nd_west_out He"/>
    </vehicle>
    <vehicle id="7.19" depart="53.00">
        <route edges="Hs nd_west_in nd_north_out st_south_in st_north_out -gneE12 mc_south_in mc_north_out -gneE3 hr_south_in Ae"/>
    </vehicle>
    <vehicle id="9.12" depart="53.00">
        <route edges="Js nd_south_in nd_north_out st_south_in st_north_out -gneE12 mc_south_in mc_north_out -gneE3 hr_south_in Ce"/>
    </vehicle>
    <vehicle id="2.9" depart="54.00">
        <route edges="Cs Ae"/>
    </vehicle>
    <vehicle id="9.13" depart="54.00">
        <route edges="Js nd_south_in nd_east_out Ie"/>
    </vehicle>
    <vehicle id="0.7" depart="57.00">
        <route edges="As hr_south_out gneE3 mc_north_in mc_south_out gneE12 st_north_in st_south_out nd_north_in nd_south_out Je"/>
    </vehicle>
    <vehicle id="2.10" depart="57.00">
        <route edges="Cs Ae"/>
    </vehicle>
    <vehicle id="8.16" depart="57.00">
        <route edges="Is nd_east_in nd_west_out He"/>
    </vehicle>
    <vehicle id="8.17" depart="58.00">
        <route edges="Is nd_east_in nd_south_out Je"/>
    </vehicle>
    <vehicle id="9.14" depart="58.00">
        <route edges="Js nd_south_in nd_west_out He"/>
    </vehicle>
    <vehicle id="9.15" depart="59.00">
        <route edges="Js nd_south_in nd_north_out st_south_in st_north_out -gneE12 mc_south_in mc_north_out -gneE3 hr_south_in Be"/>
    </vehicle>
    <vehicle id="5.5" depart="60.00">
        <route edges="Fs st_south_out nd_north_in nd_east_out Ie"/>
    </vehicle>
    <vehicle id="0.8" depart="61.00">
        <route edges="As hr_south_out gneE3 mc_north_in mc_south_out gneE12 st_north_in st_south_out nd_north_in nd_south_out Je"/>
    </vehicle>
    <vehicle id="6.1" depart="61.00">
        <route edges="Gs st_south_out nd_north_in nd_south_out Je"/>
    </vehicle>
    <vehicle id="2.11" depart="62.00">
        <route edges="Cs Be"/>
    </vehicle>
    <vehicle id="8.18" depart="62.00">
        <route edges="Is nd_east_in nd_west_out He"/>
    </vehicle>
    <vehicle id="9.16" depart="62.00">
        <route edges="Js nd_south_in nd_north_out st_south_in st_north_out -gneE12 mc_south_in mc_north_out -gneE3 hr_south_in Ae"/>
    </vehicle>
    <vehicle id="1.6" depart="64.00">
        <route edges="Bs Ce"/>
    </vehicle>
    <vehicle id="0.9" depart="65.00">
        <route edges="As Be"/>
    </vehicle>
    <vehicle id="1.7" depart="65.00">
        <route edges="Bs hr_south_out gneE3 mc_north_in mc_south_out gneE12 st_north_in st_south_out nd_north_in nd_south_out Je"/>
    </vehicle>
    <vehicle id="5.6" depart="65.00">
        <route edges="Fs st_south_out nd_north_in nd_south_out Je"/>
    </vehicle>
    <vehicle id="2.12" depart="66.00">
        <route edges="Cs Be"/>
    </vehicle>
    <vehicle id="9.17" depart="66.00">
        <route edges="Js nd_south_in nd_north_out st_south_in st_north_out -gneE12 mc_south_in mc_north_out -gneE3 hr_south_in Ce"/>
    </vehicle>
    <vehicle id="0.10" depart="67.00">
        <route edges="As hr_south_out gneE3 mc_north_in De"/>
    </vehicle>
    <vehicle id="1.8" depart="67.00">
        <route edges="Bs hr_south_out gneE3 mc_north_in mc_south_out gneE12 st_north_in st_south_out nd_north_in nd_west_out He"/>
    </vehicle>
    <vehicle id="7.20" depart="67.00">
        <route edges="Hs nd_west_in nd_south_out Je"/>
    </vehicle>
    <vehicle id="0.11" depart="68.00">
        <route edges="As Ce"/>
    </vehicle>
    <vehicle id="2.13" depart="68.00">
        <route edges="Cs hr_south_out gneE3 mc_north_in De"/>
    </vehicle>
    <vehicle id="2.14" depart="69.00">
        <route edges="Cs hr_south_out gneE3 mc_north_in mc_south_out gneE12 st_north_in st_south_out nd_north_in nd_south_out Je"/>
    </vehicle>
    <vehicle id="7.21" depart="69.00">
        <route edges="Hs nd_west_in nd_south_out Je"/>
    </vehicle>
    <vehicle id="8.19" depart="69.00">
        <route edges="Is nd_east_in nd_west_out He"/>
    </vehicle>
    <vehicle id="0.12" depart="71.00">
        <route edges="As Be"/>
    </vehicle>
    <vehicle id="8.20" depart="71.00">
        <route edges="Is nd_east_in nd_north_out st_south_in st_north_out -gneE12 mc_south_in mc_north_out -gneE3 hr_south_in Ae"/>
    </vehicle>
    <vehicle id="0.13" depart="73.00">
        <route edges="As Be"/>
    </vehicle>
    <vehicle id="1.9" depart="73.00">
        <route edges="Bs Ce"/>
    </vehicle>
    <vehicle id="7.22" depart="73.00">
        <route edges="Hs nd_west_in nd_east_out Ie"/>
    </vehicle>
    <vehicle id="8.21" depart="73.00">
        <route edges="Is nd_east_in nd_west_out He"/>
    </vehicle>
    <vehicle id="8.22" depart="74.00">
        <route edges="Is nd_east_in nd_west_out He"/>
    </vehicle>
    <vehicle id="9.18" depart="74.00">
        <route edges="Js nd_south_in nd_north_out st_south_in st_north_out -gneE12 mc_south_in mc_north_out -gneE3 hr_south_in Ae"/>
    </vehicle>
    <vehicle id="2.15" depart="75.00">
        <route edges="Cs Be"/>
    </vehicle>
    <vehicle id="7.23" depart="76.00">
        <route edges="Hs nd_west_in nd_east_out Ie"/>
    </vehicle>
    <vehicle id="2.16" depart="77.00">
        <route edges="Cs hr_south_out gneE3 mc_north_in De"/>
    </vehicle>
    <vehicle id="3.2" depart="77.00">
        <route edges="Ds mc_south_out gneE12 st_north_in st_south_out nd_north_in nd_east_out Ie"/>
    </vehicle>
    <vehicle id="9.19" depart="77.00">
        <route edges="Js nd_south_in nd_north_out st_south_in st_north_out -gneE12 mc_south_in De"/>
    </vehicle>
    <vehicle id="7.24" depart="78.00">
        <route edges="Hs nd_west_in nd_east_out Ie"/>
    </vehicle>
    <vehicle id="1.10" depart="79.00">
        <route edges="Bs Ce"/>
    </vehicle>
    <vehicle id="7.25" depart="79.00">
        <route edges="Hs nd_west_in nd_south_out Je"/>
    </vehicle>
    <vehicle id="8.23" depart="79.00">
        <route edges="Is nd_east_in nd_west_out He"/>
    </vehicle>
    <vehicle id="5.7" depart="80.00">
        <route edges="Fs st_north_out -gneE12 mc_south_in De"/>
    </vehicle>
    <vehicle id="7.26" depart="80.00">
        <route edges="Hs nd_west_in nd_east_out Ie"/>
    </vehicle>
    <vehicle id="9.20" depart="80.00">
        <route edges="Js nd_south_in nd_north_out st_south_in st_north_out -gneE12 mc_south_in mc_north_out -gneE3 hr_south_in Ae"/>
    </vehicle>
    <vehicle id="1.11" depart="81.00">
        <route edges="Bs Ae"/>
    </vehicle>
    <vehicle id="2.17" depart="82.00">
        <route edges="Cs Ae"/>
    </vehicle>
    <vehicle id="8.24" depart="82.00">
        <route edges="Is nd_east_in nd_west_out He"/>
    </vehicle>
    <vehicle id="9.21" depart="82.00">
        <route edges="Js nd_south_in nd_north_out st_south_in st_north_out -gneE12 mc_south_in mc_north_out -gneE3 hr_south_in Ae"/>
    </vehicle>
    <vehicle id="1.12" depart="83.00">
        <route edges="Bs Ce"/>
    </vehicle>
    <vehicle id="7.27" depart="84.00">
        <route edges="Hs nd_west_in nd_east_out Ie"/>
    </vehicle>
    <vehicle id="8.25" depart="84.00">
        <route edges="Is nd_east_in nd_west_out He"/>
    </vehicle>
    <vehicle id="9.22" depart="84.00">
        <route edges="Js nd_south_in nd_east_out Ie"/>
    </vehicle>
    <vehicle id="0.14" depart="85.00">
        <route edges="As Be"/>
    </vehicle>
    <vehicle id="9.23" depart="85.00">
        <route edges="Js nd_south_in nd_north_out st_south_in st_north_out -gneE12 mc_south_in De"/>
    </vehicle>
    <vehicle id="0.15" depart="86.00">
        <route edges="As hr_south_out gneE3 mc_north_in mc_south_out gneE12 st_north_in st_south_out nd_north_in nd_east_out Ie"/>
    </vehicle>
    <vehicle id="2.18" depart="86.00">
        <route edges="Cs Be"/>
    </vehicle>
    <vehicle id="3.3" depart="86.00">
        <route edges="Ds mc_north_out -gneE3 hr_south_in Ce"/>
    </vehicle>
    <vehicle id="4.5" depart="86.00">
        <route edges="Es mc_south_out gneE12 st_north_in st_south_out nd_north_in nd_west_out He"/>
    </vehicle>
    <vehicle id="7.28" depart="86.00">
        <route edges="Hs nd_west_in nd_north_out st_south_in st_north_out -gneE12 mc_south_in mc_north_out -gneE3 hr_south_in Ce"/>
    </vehicle>
    <vehicle id="2.19" depart="87.00">
        <route edges="Cs Be"/>
    </vehicle>
    <vehicle id="7.29" depart="89.00">
        <route edges="Hs nd_west_in nd_east_out Ie"/>
    </vehicle>
    <vehicle id="5.8" depart="90.00">
        <route edges="Fs st_south_out nd_north_in nd_south_out Je"/>
    </vehicle>
    <vehicle id="7.30" depart="90.00">
        <route edges="Hs nd_west_in nd_east_out Ie"/>
    </vehicle>
    <vehicle id="0.16" depart="91.00">
        <route edges="As hr_south_out gneE3 mc_north_in mc_south_out gneE12 st_north_in st_south_out nd_north_in nd_south_out Je"/>
    </vehicle>
    <vehicle id="0.17" depart="92.00">
        <route edges="As hr_south_out gneE3 mc_north_in mc_south_out gneE12 st_north_in st_south_out nd_north_in nd_south_out Je"/>
    </vehicle>
    <vehicle id="1.13" depart="92.00">
        <route edges="Bs Ce"/>
    </vehicle>
    <vehicle id="1.14" depart="93.00">
        <route edges="Bs Ae"/>
    </vehicle>
    <vehicle id="0.18" depart="94.00">
        <route edges="As hr_south_out gneE3 mc_north_in De"/>
    </vehicle>
    <vehicle id="2.20" depart="94.00">
        <route edges="Cs Ae"/>
    </vehicle>
    <vehicle id="2.21" depart="95.00">
        <route edges="Cs Ae"/>
    </vehicle>
    <vehicle id="2.22" depart="96.00">
        <route edges="Cs hr_south_out gneE3 mc_north_in mc_south_out gneE12 st_north_in st_south_out nd_north_in nd_south_out Je"/>
    </vehicle>
    <vehicle id="2.23" depart="97.00">
        <route edges="Cs Be"/>
    </vehicle>
    <vehicle id="6.2" depart="97.00">
        <route edges="Gs st_north_out -gneE12 mc_south_in mc_north_out -gneE3 hr_south_in Ae"/>
    </vehicle>
    <vehicle id="2.24" depart="99.00">
        <route edges="Cs Ae"/>
    </vehicle>
    <vehicle id="5.9" depart="99.00">
        <route edges="Fs st_south_out nd_north_in nd_south_out Je"/>
    </vehicle>
    <vehicle id="1.15" depart="100.00">
        <route edges="Bs Ce"/>
    </vehicle>
    <vehicle id="9.24" depart="100.00">
        <route edges="Js nd_south_in nd_north_out st_south_in st_north_out -gneE12 mc_south_in mc_north_out -gneE3 hr_south_in Ae"/>
    </vehicle>
    <vehicle id="0.19" depart="101.00">
        <route edges="As hr_south_out gneE3 mc_north_in mc_south_out gneE12 st_north_in Ge"/>
    </vehicle>
    <vehicle id="3.4" depart="102.00">
        <route edges="Ds mc_south_out gneE12 st_north_in st_south_out nd_north_in nd_south_out Je"/>
    </vehicle>
    <vehicle id="1.16" depart="103.00">
        <route edges="Bs Ce"/>
    </vehicle>
    <vehicle id="2.25" depart="103.00">
        <route edges="Cs Be"/>
    </vehicle>
    <vehicle id="1.17" depart="104.00">
        <route edges="Bs Ce"/>
    </vehicle>
    <vehicle id="8.26" depart="104.00">
        <route edges="Is nd_east_in nd_north_out st_south_in Ge"/>
    </vehicle>
    <vehicle id="9.25" depart="104.00">
        <route edges="Js nd_south_in nd_north_out st_south_in st_north_out -gneE12 mc_south_in mc_north_out -gneE3 hr_south_in Ae"/>
    </vehicle>
    <vehicle id="8.27" depart="105.00">
        <route edges="Is nd_east_in nd_west_out He"/>
    </vehicle>
    <vehicle id="0.20" depart="106.00">
        <route edges="As hr_south_out gneE3 mc_north_in mc_south_out gneE12 st_north_in st_south_out nd_north_in nd_west_out He"/>
    </vehicle>
    <vehicle id="1.18" depart="107.00">
        <route edges="Bs Ae"/>
    </vehicle>
    <vehicle id="2.26" depart="107.00">
        <route edges="Cs Be"/>
    </vehicle>
    <vehicle id="0.21" depart="108.00">
        <route edges="As hr_south_out gneE3 mc_north_in mc_south_out gneE12 st_north_in st_south_out nd_north_in nd_south_out Je"/>
    </vehicle>
    <vehicle id="1.19" depart="108.00">
        <route edges="Bs Ce"/>
    </vehicle>
    <vehicle id="9.26" depart="108.00">
        <route edges="Js nd_south_in nd_north_out st_south_in st_north_out -gneE12 mc_south_in mc_north_out -gneE3 hr_south_in Ae"/>
    </vehicle>
    <vehicle id="2.27" depart="109.00">
        <route edges="Cs Ae"/>
    </vehicle>
    <vehicle id="8.28" depart="109.00">
        <route edges="Is nd_east_in nd_north_out st_south_in st_north_out -gneE12 mc_south_in Ee"/>
    </vehicle>
    <vehicle id="0.22" depart="110.00">
        <route edges="As hr_south_out gneE3 mc_north_in Ee"/>
    </vehicle>
    <vehicle id="2.28" depart="110.00">
        <route edges="Cs Be"/>
    </vehicle>
    <vehicle id="7.31" depart="111.00">
        <route edges="Hs nd_west_in nd_east_out Ie"/>
    </vehicle>
    <vehicle id="9.27" depart="111.00">
        <route edges="Js nd_south_in nd_north_out st_south_in st_north_out -gneE12 mc_south_in mc_north_out -gneE3 hr_south_in Ae"/>
    </vehicle>
    <vehicle id="8.29" depart="112.00">
        <route edges="Is nd_east_in nd_west_out He"/>
    </vehicle>
    <vehicle id="7.32" depart="114.00">
        <route edges="Hs nd_west_in nd_south_out Je"/>
    </vehicle>
    <vehicle id="1.20" depart="115.00">
        <route edges="Bs Ce"/>
    </vehicle>
    <vehicle id="2.29" depart="115.00">
        <route edges="Cs Be"/>
    </vehicle>
    <vehicle id="7.33" depart="115.00">
        <route edges="Hs nd_west_in nd_south_out Je"/>
    </vehicle>
    <vehicle id="7.34" depart="116.00">
        <route edges="Hs nd_west_in nd_east_out Ie"/>
    </vehicle>
    <vehicle id="8.30" depart="116.00">
        <route edges="Is nd_east_in nd_south_out Je"/>
    </vehicle>
    <vehicle id="1.21" depart="117.00">
        <route edges="Bs Ce"/>
    </vehicle>
    <vehicle id="2.30" depart="117.00">
        <route edges="Cs Be"/>
    </vehicle>
    <vehicle id="8.31" depart="117.00">
        <route edges="Is nd_east_in nd_west_out He"/>
    </vehicle>
    <vehicle id="0.23" depart="118.00">
        <route edges="As Ce"/>
    </vehicle>
    <vehicle id="1.22" depart="118.00">
        <route edges="Bs hr_south_out gneE3 mc_north_in mc_south_out gneE12 st_north_in st_south_out nd_north_in nd_south_out Je"/>
    </vehicle>
    <vehicle id="0.24" depart="120.00">
        <route edges="As Be"/>
    </vehicle>
    <vehicle id="2.31" depart="120.00">
        <route edges="Cs Be"/>
    </vehicle>
    <vehicle id="9.28" depart="120.00">
        <route edges="Js nd_south_in nd_west_out He"/>
    </vehicle>
    <vehicle id="8.32" depart="121.00">
        <route edges="Is nd_east_in nd_west_out He"/>
    </vehicle>
    <vehicle id="9.29" depart="121.00">
        <route edges="Js nd_south_in nd_east_out Ie"/>
    </vehicle>
    <vehicle id="0.25" depart="122.00">
        <route edges="As hr_south_out gneE3 mc_north_in De"/>
    </vehicle>
    <vehicle id="2.32" depart="122.00">
        <route edges="Cs Be"/>
    </vehicle>
    <vehicle id="2.33" depart="123.00">
        <route edges="Cs hr_south_out gneE3 mc_north_in mc_south_out gneE12 st_north_in st_south_out nd_north_in nd_south_out Je"/>
    </vehicle>
    <vehicle id="6.3" depart="123.00">
        <route edges="Gs st_south_out nd_north_in nd_east_out Ie"/>
    </vehicle>
    <vehicle id="2.34" depart="124.00">
        <route edges="Cs Ae"/>
    </vehicle>
    <vehicle id="9.30" depart="124.00">
        <route edges="Js nd_south_in nd_east_out Ie"/>
    </vehicle>
    <vehicle id="1.23" depart="125.00">
        <route edges="Bs Ae"/>
    </vehicle>
    <vehicle id="0.26" depart="126.00">
        <route edges="As Be"/>
    </vehicle>
    <vehicle id="2.35" depart="127.00">
        <route edges="Cs Be"/>
    </vehicle>
    <vehicle id="8.33" depart="127.00">
        <route edges="Is nd_east_in nd_north_out st_south_in st_north_out -gneE12 mc_south_in mc_north_out -gneE3 hr_south_in Ae"/>
    </vehicle>
    <vehicle id="0.27" depart="128.00">
        <route edges="As hr_south_out gneE3 mc_north_in De"/>
    </vehicle>
    <vehicle id="1.24" depart="129.00">
        <route edges="Bs Ce"/>
    </vehicle>
    <vehicle id="9.31" depart="129.00">
        <route edges="Js nd_south_in nd_west_out He"/>
    </vehicle>
    <vehicle id="1.25" depart="131.00">
        <route edges="Bs Ce"/>
    </vehicle>
    <vehicle id="1.26" depart="132.00">
        <route edges="Bs hr_south_out gneE3 mc_north_in mc_south_out gneE12 st_north_in st_south_out nd_north_in nd_south_out Je"/>
    </vehicle>
    <vehicle id="8.34" depart="132.00">
        <route edges="Is nd_east_in nd_west_out He"/>
    </vehicle>
    <vehicle id="0.28" depart="133.00">
        <route edges="As Ce"/>
    </vehicle>
    <vehicle id="0.29" depart="134.00">
        <route edges="As hr_south_out gneE3 mc_north_in mc_south_out gneE12 st_north_in st_south_out nd_north_in nd_south_out Je"/>
    </vehicle>
    <vehicle id="2.36" depart="135.00">
        <route edges="Cs Be"/>
    </vehicle>
    <vehicle id="8.35" depart="135.00">
        <route edges="Is nd_east_in nd_west_out He"/>
    </vehicle>
    <vehicle id="9.32" depart="135.00">
        <route edges="Js nd_south_in nd_east_out Ie"/>
    </vehicle>
    <vehicle id="2.37" depart="136.00">
        <route edges="Cs hr_south_out gneE3 mc_north_in mc_south_out gneE12 st_north_in st_south_out nd_north_in nd_south_out Je"/>
    </vehicle>
    <vehicle id="9.33" depart="136.00">
        <route edges="Js nd_south_in nd_north_out st_south_in Ge"/>
    </vehicle>
    <vehicle id="7.35" depart="137.00">
        <route edges="Hs nd_west_in nd_east_out Ie"/>
    </vehicle>
    <vehicle id="0.30" depart="138.00">
        <route edges="As Be"/>
    </vehicle>
    <vehicle id="1.27" depart="138.00">
        <route edges="Bs Ce"/>
    </vehicle>
    <vehicle id="5.10" depart="139.00">
        <route edges="Fs st_south_out nd_north_in nd_east_out Ie"/>
    </vehicle>
    <vehicle id="6.4" depart="141.00">
        <route edges="Gs st_north_out -gneE12 mc_south_in mc_north_out -gneE3 hr_south_in Ce"/>
    </vehicle>
    <vehicle id="7.36" depart="141.00">
        <route edges="Hs nd_west_in nd_south_out Je"/>
    </vehicle>
    <vehicle id="1.28" depart="142.00">
        <route edges="Bs Ce"/>
    </vehicle>
    <vehicle id="5.11" depart="142.00">
        <route edges="Fs st_south_out nd_north_in nd_south_out Je"/>
    </vehicle>
    <vehicle id="7.37" depart="142.00">
        <route edges="Hs nd_west_in nd_east_out Ie"/>
    </vehicle>
    <vehicle id="8.36" depart="142.00">
        <route edges="Is nd_east_in nd_north_out st_south_in st_north_out -gneE12 mc_south_in mc_north_out -gneE3 hr_south_in Ae"/>
    </vehicle>
    <vehicle id="9.34" depart="142.00">
        <route edges="Js nd_south_in nd_north_out st_south_in st_north_out -gneE12 mc_south_in mc_north_out -gneE3 hr_south_in Ae"/>
    </vehicle>
    <vehicle id="1.29" depart="144.00">
        <route edges="Bs hr_south_out gneE3 mc_north_in mc_south_out gneE12 st_north_in st_south_out nd_north_in nd_south_out Je"/>
    </vehicle>
    <vehicle id="7.38" depart="144.00">
        <route edges="Hs nd_west_in nd_south_out Je"/>
    </vehicle>
    <vehicle id="0.31" depart="145.00">
        <route edges="As Ce"/>
    </vehicle>
    <vehicle id="1.30" depart="145.00">
        <route edges="Bs Ce"/>
    </vehicle>
    <vehicle id="2.38" depart="145.00">
        <route edges="Cs Be"/>
    </vehicle>
    <vehicle id="3.5" depart="145.00">
        <route edges="Ds mc_north_out -gneE3 hr_south_in Ae"/>
    </vehicle>
    <vehicle id="1.31" depart="146.00">
        <route edges="Bs Ce"/>
    </vehicle>
    <vehicle id="7.39" depart="146.00">