<?xml version="1.0" encoding="UTF-8"?>

<!-- generated on Tue Sep  5 15:39:32 2017 by SUMO netconvert Version 0.30.0
<?xml version="1.0" encoding="UTF-8"?>

<configuration xmlns:xsi="http://www.w3.org/2001/XMLSchema-instance" xsi:noNamespaceSchemaLocation="http://sumo.dlr.de/xsd/netconvertConfiguration.xsd">

    <input>
        <osm-files value="aarhus.osm.xml"/>
    </input>

    <output>
        <output-file value="aarhus.net.xml"/>
    </output>

    <projection>
        <proj.utm value="true"/>
    </projection>

    <tls_building>
        <tls.guess-signals value="true"/>
    </tls_building>

    <ramp_guessing>
        <ramps.guess value="true"/>
    </ramp_guessing>

    <edge_removal>
        <remove-edges.by-vclass value="pedestrian"/>
    </edge_removal>

    <processing>
        <geometry.remove value="true"/>
        <roundabouts.guess value="true"/>
    </processing>

</configuration>
-->

<net version="0.27" xmlns:xsi="http://www.w3.org/2001/XMLSchema-instance" xsi:noNamespaceSchemaLocation="http://sumo.dlr.de/xsd/net_file.xsd">

    <location netOffset="-572362.54,-6224525.94" convBoundary="0.00,0.00,3322.49,4433.98" origBoundary="10.165526,56.159771,10.219155,56.199932" projParameter="+proj=utm +zone=32 +ellps=WGS84 +datum=WGS84 +units=m +no_defs"/>

    <type id="highway.bridleway" priority="1" numLanes="1" speed="2.78" allow="pedestrian" oneway="1" width="2.00"/>
    <type id="highway.bus_guideway" priority="1" numLanes="1" speed="8.33" allow="bus" oneway="1"/>
    <type id="highway.cycleway" priority="1" numLanes="1" speed="5.56" allow="bicycle" oneway="0" width="1.00"/>
    <type id="highway.footway" priority="1" numLanes="1" speed="2.78" allow="pedestrian" oneway="1" width="2.00"/>
    <type id="highway.ford" priority="1" numLanes="1" speed="2.78" allow="army" oneway="0"/>
    <type id="highway.living_street" priority="3" numLanes="1" speed="2.78" disallow="tram rail_urban rail rail_electric ship" oneway="0"/>
    <type id="highway.motorway" priority="13" numLanes="2" speed="44.44" allow="private emergency authority army vip passenger hov taxi bus coach delivery truck trailer motorcycle evehicle custom1 custom2" oneway="1"/>
    <type id="highway.motorway_link" priority="12" numLanes="1" speed="22.22" allow="private emergency authority army vip passenger hov taxi bus coach delivery truck trailer motorcycle evehicle custom1 custom2" oneway="1"/>
    <type id="highway.path" priority="1" numLanes="1" speed="2.78" allow="bicycle pedestrian" oneway="1" width="2.00"/>
    <type id="highway.pedestrian" priority="1" numLanes="1" speed="2.78" allow="pedestrian" oneway="1" width="2.00"/>
    <type id="highway.primary" priority="9" numLanes="2" speed="27.78" disallow="tram rail_urban rail rail_electric ship" oneway="0"/>
    <type id="highway.primary_link" priority="8" numLanes="1" speed="22.22" disallow="tram rail_urban rail rail_electric ship" oneway="0"/>
    <type id="highway.raceway" priority="14" numLanes="2" speed="83.33" allow="vip" oneway="0"/>
    <type id="highway.residential" priority="4" numLanes="1" speed="13.89" disallow="tram rail_urban rail rail_electric ship" oneway="0"/>
    <type id="highway.secondary" priority="7" numLanes="2" speed="27.78" disallow="tram rail_urban rail rail_electric ship" oneway="0"/>
    <type id="highway.secondary_link" priority="6" numLanes="1" speed="22.22" disallow="tram rail_urban rail rail_electric ship" oneway="0"/>
    <type id="highway.service" priority="2" numLanes="1" speed="5.56" allow="delivery bicycle pedestrian" oneway="0"/>
    <type id="highway.services" priority="1" numLanes="1" speed="8.33" disallow="tram rail_urban rail rail_electric ship" oneway="0"/>
    <type id="highway.stairs" priority="1" numLanes="1" speed="1.39" allow="pedestrian" oneway="1" width="2.00"/>
    <type id="highway.step" priority="1" numLanes="1" speed="1.39" allow="pedestrian" oneway="1" width="2.00"/>
    <type id="highway.steps" priority="1" numLanes="1" speed="1.39" allow="pedestrian" oneway="1" width="2.00"/>
    <type id="highway.tertiary" priority="6" numLanes="1" speed="22.22" disallow="tram rail_urban rail rail_electric ship" oneway="0"/>
    <type id="highway.tertiary_link" priority="5" numLanes="1" speed="22.22" disallow="tram rail_urban rail rail_electric ship" oneway="0"/>
    <type id="highway.track" priority="1" numLanes="1" speed="5.56" disallow="tram rail_urban rail rail_electric ship" oneway="0"/>
    <type id="highway.trunk" priority="11" numLanes="2" speed="27.78" disallow="tram rail_urban rail rail_electric bicycle pedestrian ship" oneway="0"/>
    <type id="highway.trunk_link" priority="10" numLanes="1" speed="22.22" disallow="tram rail_urban rail rail_electric bicycle pedestrian ship" oneway="0"/>
    <type id="highway.unclassified" priority="5" numLanes="1" speed="13.89" disallow="tram rail_urban rail rail_electric ship" oneway="0"/>
    <type id="highway.unsurfaced" priority="1" numLanes="1" speed="8.33" disallow="tram rail_urban rail rail_electric ship" oneway="0"/>
    <type id="railway.light_rail" priority="15" numLanes="1" speed="27.78" allow="rail_urban" oneway="1"/>
    <type id="railway.preserved" priority="15" numLanes="1" speed="27.78" allow="rail" oneway="1"/>
    <type id="railway.rail" priority="15" numLanes="1" speed="83.33" allow="rail rail_electric" oneway="1"/>
    <type id="railway.subway" priority="15" numLanes="1" speed="27.78" allow="rail_urban" oneway="1"/>
    <type id="railway.tram" priority="15" numLanes="1" speed="13.89" allow="tram" oneway="1"/>

    <edge id=":1025224740_0" function="internal">
        <lane id=":1025224740_0_0" index="0" disallow="tram rail_urban rail rail_electric ship" speed="20.83" length="11.05" shape="1933.96,2489.60 1937.02,2490.97 1939.24,2491.89 1941.46,2492.31 1944.50,2492.21"/>
    </edge>
    <edge id=":1025224740_1" function="internal">
        <lane id=":1025224740_1_0" index="0" disallow="tram rail_urban rail rail_electric ship" speed="19.44" length="10.21" shape="1932.68,2492.65 1935.54,2493.57 1937.62,2493.84 1939.70,2494.12 1942.56,2495.05"/>
        <lane id=":1025224740_1_1" index="1" disallow="tram rail_urban rail rail_electric ship" speed="19.44" length="10.21" shape="1931.40,2495.69 1934.26,2496.61 1936.34,2496.88 1938.41,2497.15 1941.27,2498.09"/>
    </edge>
    <edge id=":1278123428_0" function="internal">
        <lane id=":1278123428_0_0" index="0" disallow="tram rail_urban rail rail_electric ship" speed="9.73" length="7.24" shape="1980.95,2500.92 1987.51,2503.99"/>
    </edge>
    <edge id=":1278123428_1" function="internal">
        <lane id=":1278123428_1_0" index="0" allow="bicycle" speed="5.56" length="1.61" width="1.00" shape="1980.95,2500.92 1981.23,2501.33 1981.26,2501.64 1981.03,2501.84 1980.54,2501.94"/>
    </edge>
    <edge id=":1278123428_2" function="internal">
        <lane id=":1278123428_2_0" index="0" allow="bicycle" speed="9.73" length="5.19" width="1.00" shape="1980.95,2504.96 1982.35,2504.23 1982.75,2503.48 1982.15,2502.72 1980.54,2501.94"/>
    </edge>
    <edge id=":1278123428_3" function="internal">
        <lane id=":1278123428_3_0" index="0" disallow="tram rail_urban rail rail_electric ship" speed="13.89" length="6.92" shape="1980.95,2504.96 1982.85,2504.14 1984.24,2503.57 1985.62,2503.45 1987.51,2503.99"/>
    </edge>
    <edge id=":1312078098_0" function="internal">
        <lane id=":1312078098_0_0" index="0" disallow="tram rail_urban rail rail_electric ship" speed="18.05" length="5.00" shape="1566.00,2615.41 1564.67,2615.09 1563.55,2615.28 1562.66,2615.97 1561.98,2617.16"/>
    </edge>
    <edge id=":1312078098_1" function="internal">
        <lane id=":1312078098_1_0" index="0" disallow="tram rail_urban rail rail_electric ship" speed="18.05" length="10.30" shape="1566.00,2615.41 1563.54,2614.01 1562.11,2612.17 1561.70,2609.88 1562.31,2607.14"/>
    </edge>
    <edge id=":1312078098_2" function="internal">
        <lane id=":1312078098_2_0" index="0" disallow="tram rail_urban rail rail_electric ship" speed="13.89" length="4.82" shape="1566.00,2615.41 1565.15,2614.19 1565.07,2613.27 1565.75,2612.65 1567.21,2612.33"/>
    </edge>
    <edge id=":1312078098_3" function="internal">
        <lane id=":1312078098_3_0" index="0" disallow="tram rail_urban rail rail_electric ship" speed="18.05" length="5.02" shape="1565.40,2608.31 1565.10,2609.64 1565.30,2610.76 1566.00,2611.66 1567.21,2612.33"/>
    </edge>
    <edge id=":1312078098_4" function="internal">
        <lane id=":1312078098_4_0" index="0" disallow="tram rail_urban rail rail_electric ship" speed="22.22" length="9.48" shape="1565.40,2608.31 1561.98,2617.16"/>
    </edge>
    <edge id=":1312078098_5" function="internal">
        <lane id=":1312078098_5_0" index="0" disallow="tram rail_urban rail rail_electric ship" speed="22.22" length="2.41" shape="1565.40,2608.31 1564.18,2609.18 1563.27,2609.27"/>
    </edge>
    <edge id=":1312078098_9" function="internal">
        <lane id=":1312078098_9_0" index="0" speed="22.22" length="2.41" shape="1563.27,2609.27 1562.64,2608.59 1562.31,2607.14"/>
    </edge>
    <edge id=":1312078098_6" function="internal">
        <lane id=":1312078098_6_0" index="0" disallow="tram rail_urban rail rail_electric ship" speed="22.22" length="9.45" shape="1558.91,2615.96 1562.31,2607.14"/>
    </edge>
    <edge id=":1312078098_7" function="internal">
        <lane id=":1312078098_7_0" index="0" disallow="tram rail_urban rail rail_electric ship" speed="18.05" length="5.16" shape="1558.91,2615.96 1560.30,2613.50 1562.15,2612.07"/>
    </edge>
    <edge id=":1312078098_8" function="internal">
        <lane id=":1312078098_8_0" index="0" disallow="tram rail_urban rail rail_electric ship" speed="22.22" length="2.41" shape="1558.91,2615.96 1560.13,2615.11 1561.05,2615.02"/>
    </edge>
    <edge id=":1312078098_10" function="internal">
        <lane id=":1312078098_10_0" index="0" speed="18.05" length="5.16" shape="1562.15,2612.07 1564.45,2611.68 1567.21,2612.33"/>
    </edge>
    <edge id=":1312078098_11" function="internal">
        <lane id=":1312078098_11_0" index="0" speed="22.22" length="2.41" shape="1561.05,2615.02 1561.67,2615.71 1561.98,2617.16"/>
    </edge>
    <edge id=":1312078099_0" function="internal">
        <lane id=":1312078099_0_0" index="0" disallow="tram rail_urban rail rail_electric ship" speed="13.89" length="4.82" shape="1643.46,2642.26 1644.31,2643.48 1644.39,2644.40 1643.71,2645.02 1642.26,2645.33"/>
    </edge>
    <edge id=":1312078101_0" function="internal">
        <lane id=":1312078101_0_0" index="0" disallow="tram rail_urban rail rail_electric ship" speed="13.89" length="5.67" shape="1578.02,2582.85 1576.60,2583.77 1575.46,2584.28 1574.53,2584.93 1573.75,2586.31"/>
    </edge>
    <edge id=":1312078101_1" function="internal">
        <lane id=":1312078101_1_0" index="0" allow="bicycle" speed="5.56" length="12.15" width="1.00" shape="1578.02,2582.85 1574.90,2584.84 1572.47,2585.01 1570.73,2583.36 1569.67,2579.90"/>
    </edge>
    <edge id=":1312078101_2" function="internal">
        <lane id=":1312078101_2_0" index="0" disallow="tram rail_urban rail rail_electric ship" speed="13.89" length="13.25" shape="1578.02,2582.85 1574.11,2585.67 1571.89,2586.19 1571.35,2584.39 1572.50,2580.29"/>
    </edge>
    <edge id=":1312078101_3" function="internal">
        <lane id=":1312078101_3_0" index="0" disallow="tram rail_urban rail rail_electric ship" speed="22.22" length="5.20" shape="1575.59,2581.46 1573.75,2586.31"/>
    </edge>
    <edge id=":1312078101_4" function="internal">
        <lane id=":1312078101_4_0" index="0" allow="bicycle" speed="13.89" length="11.01" width="1.00" shape="1575.59,2581.46 1573.73,2585.27 1572.13,2586.29 1570.77,2584.50 1570.16,2581.95"/>
    </edge>
    <edge id=":1312078101_5" function="internal">
        <lane id=":1312078101_5_0" index="0" disallow="tram rail_urban rail rail_electric ship" speed="22.22" length="2.41" shape="1575.59,2581.46 1574.38,2582.32 1573.46,2582.41"/>
    </edge>
    <edge id=":1312078101_9" function="internal">
        <lane id=":1312078101_9_0" index="0" speed="13.89" length="2.10" width="1.00" shape="1570.16,2581.95 1569.67,2579.90"/>
    </edge>
    <edge id=":1312078101_10" function="internal">
        <lane id=":1312078101_10_0" index="0" speed="22.22" length="2.41" shape="1573.46,2582.41 1572.84,2581.73 1572.50,2580.29"/>
    </edge>
    <edge id=":1312078101_6" function="internal">
        <lane id=":1312078101_6_0" index="0" allow="bicycle" speed="13.89" length="5.50" width="1.00" shape="1570.66,2585.14 1570.97,2583.64 1570.68,2582.58 1570.14,2581.48 1569.67,2579.90"/>
    </edge>
    <edge id=":1312078101_7" function="internal">
        <lane id=":1312078101_7_0" index="0" disallow="tram rail_urban rail rail_electric ship" speed="22.22" length="5.20" shape="1570.66,2585.14 1572.50,2580.29"/>
    </edge>
    <edge id=":1312078101_8" function="internal">
        <lane id=":1312078101_8_0" index="0" disallow="tram rail_urban rail rail_electric ship" speed="22.22" length="2.41" shape="1570.66,2585.14 1571.87,2584.28 1572.79,2584.19"/>
    </edge>
    <edge id=":1312078101_11" function="internal">
        <lane id=":1312078101_11_0" index="0" speed="22.22" length="2.41" shape="1572.79,2584.19 1573.41,2584.86 1573.75,2586.31"/>
    </edge>
    <edge id=":1396434788_0" function="internal">
        <lane id=":1396434788_0_0" index="0" allow="delivery bicycle pedestrian" speed="5.56" length="7.09" shape="2087.09,2293.22 2085.09,2292.73 2083.79,2291.85 2082.51,2291.10 2080.53,2291.01"/>
    </edge>
    <edge id=":1396434788_1" function="internal">
        <lane id=":1396434788_1_0" index="0" allow="delivery bicycle pedestrian" speed="5.56" length="4.88" shape="2087.09,2293.22 2086.02,2292.15 2085.78,2291.25 2086.35,2290.51 2087.74,2289.94"/>
    </edge>
    <edge id=":1396434788_2" function="internal">
        <lane id=":1396434788_2_0" index="0" allow="delivery bicycle pedestrian" speed="5.56" length="6.07" shape="2086.22,2285.98 2085.23,2287.65 2085.15,2288.86 2085.99,2289.63 2087.74,2289.94"/>
    </edge>
    <edge id=":1396434788_3" function="internal">
        <lane id=":1396434788_3_0" index="0" allow="delivery bicycle pedestrian" speed="5.56" length="7.95" shape="2086.22,2285.98 2084.89,2287.95 2083.92,2289.39 2082.68,2290.39 2080.53,2291.01"/>
    </edge>
    <edge id=":1396434806_0" function="internal">
        <lane id=":1396434806_0_0" index="0" allow="delivery bicycle pedestrian" speed="5.56" length="7.05" shape="2095.52,2248.26 2093.22,2248.33 2092.18,2248.97 2092.39,2250.17 2093.87,2251.94"/>
    </edge>
    <edge id=":1396434806_1" function="internal">
        <lane id=":1396434806_1_0" index="0" allow="delivery bicycle pedestrian" speed="5.56" length="4.82" shape="2095.52,2248.26 2094.35,2247.35 2094.00,2246.50 2094.47,2245.70 2095.76,2244.97"/>
    </edge>
    <edge id=":1396434806_2" function="internal">
        <lane id=":1396434806_2_0" index="0" allow="delivery bicycle pedestrian" speed="5.56" length="13.14" shape="2082.90,2243.22 2086.04,2244.49 2089.09,2244.89 2092.26,2244.89 2095.76,2244.97"/>
    </edge>
    <edge id=":1396434806_3" function="internal">
        <lane id=":1396434806_3_0" index="0" allow="delivery bicycle pedestrian" speed="5.56" length="14.05" shape="2082.90,2243.22 2085.94,2245.14 2088.67,2247.20 2091.25,2249.45 2093.87,2251.94"/>
    </edge>
    <edge id=":1396434807_0" function="internal">
        <lane id=":1396434807_0_0" index="0" allow="delivery bicycle pedestrian" speed="9.72" length="5.16" shape="2079.59,2237.97 2079.26,2239.25 2079.42,2240.40 2080.09,2241.41 2081.27,2242.29"/>
    </edge>
    <edge id=":1396434807_1" function="internal">
        <lane id=":1396434807_1_0" index="0" disallow="tram rail_urban rail rail_electric ship" speed="13.89" length="6.21" shape="2079.59,2237.97 2077.10,2243.66"/>
        <lane id=":1396434807_1_1" index="1" disallow="tram rail_urban rail rail_electric ship" speed="13.89" length="6.21" shape="2076.56,2236.66 2074.08,2242.34"/>
    </edge>
    <edge id=":1396434824_0" function="internal">
        <lane id=":1396434824_0_0" index="0" disallow="tram rail_urban rail rail_electric ship" speed="9.72" length="6.33" shape="2060.77,2294.36 2058.76,2294.86 2057.19,2295.52 2056.07,2296.33 2055.40,2297.29"/>
    </edge>
    <edge id=":1396434824_1" function="internal">
        <lane id=":1396434824_1_0" index="0" disallow="tram rail_urban rail rail_electric ship" speed="13.89" length="6.83" shape="2058.13,2291.05 2055.40,2297.29"/>
        <lane id=":1396434824_1_1" index="1" disallow="tram rail_urban rail rail_electric ship" speed="13.89" length="6.83" shape="2055.11,2289.73 2052.37,2295.98"/>
        <lane id=":1396434824_1_2" index="2" disallow="tram rail_urban rail rail_electric ship" speed="13.89" length="6.83" shape="2052.09,2288.41 2049.34,2294.67"/>
    </edge>
    <edge id=":1396504114_0" function="internal">
        <lane id=":1396504114_0_0" index="0" allow="delivery bicycle pedestrian" speed="5.56" length="4.82" shape="1873.43,2366.35 1872.19,2367.18 1871.27,2367.25 1870.67,2366.55 1870.38,2365.09"/>
    </edge>
    <edge id=":1396522456_0" function="internal">
        <lane id=":1396522456_0_0" index="0" allow="delivery bicycle pedestrian" speed="9.73" length="5.04" shape="2455.99,2546.09 2454.90,2545.23 2453.81,2544.94 2452.71,2545.21 2451.60,2546.05"/>
    </edge>
    <edge id=":1396522456_1" function="internal">
        <lane id=":1396522456_1_0" index="0" disallow="tram rail_urban rail rail_electric ship" speed="13.89" length="9.60" shape="2455.99,2546.09 2449.15,2539.35"/>
    </edge>
    <edge id=":1396522456_2" function="internal">
        <lane id=":1396522456_2_0" index="0" disallow="tram rail_urban rail rail_electric ship" speed="13.89" length="2.41" shape="2455.99,2546.09 2455.74,2544.62 2456.05,2543.76"/>
    </edge>
    <edge id=":1396522456_9" function="internal">
        <lane id=":1396522456_9_0" index="0" speed="13.89" length="2.41" shape="2456.05,2543.76 2456.93,2543.49 2458.38,2543.82"/>
    </edge>
    <edge id=":1396522456_3" function="internal">
        <lane id=":1396522456_3_0" index="0" disallow="tram rail_urban rail rail_electric ship" speed="13.89" length="9.82" shape="2451.39,2536.92 2458.38,2543.82"/>
    </edge>
    <edge id=":1396522456_4" function="internal">
        <lane id=":1396522456_4_0" index="0" allow="delivery bicycle pedestrian" speed="9.73" length="5.50" shape="2451.39,2536.92 2453.21,2539.16 2453.85,2541.43 2453.79,2541.68"/>
    </edge>
    <edge id=":1396522456_5" function="internal">
        <lane id=":1396522456_5_0" index="0" disallow="tram rail_urban rail rail_electric ship" speed="13.89" length="2.52" shape="2451.39,2536.92 2451.74,2538.37 2451.48,2539.25 2451.38,2539.29"/>
    </edge>
    <edge id=":1396522456_10" function="internal">
        <lane id=":1396522456_10_0" index="0" speed="9.73" length="4.99" shape="2453.79,2541.68 2453.32,2543.73 2451.60,2546.05"/>
    </edge>
    <edge id=":1396522456_11" function="internal">
        <lane id=":1396522456_11_0" index="0" speed="13.89" length="2.30" shape="2451.38,2539.29 2450.62,2539.58 2449.15,2539.35"/>
    </edge>
    <edge id=":1396522456_6" function="internal">
        <lane id=":1396522456_6_0" index="0" disallow="tram rail_urban rail rail_electric ship" speed="9.73" length="5.04" shape="2449.25,2543.74 2450.08,2542.62 2450.33,2541.51 2450.03,2540.42 2449.15,2539.35"/>
    </edge>
    <edge id=":1396522456_7" function="internal">
        <lane id=":1396522456_7_0" index="0" disallow="tram rail_urban rail rail_electric ship" speed="9.73" length="10.49" shape="2449.25,2543.74 2451.55,2541.99 2453.84,2541.42 2456.11,2542.03 2458.38,2543.82"/>
    </edge>
    <edge id=":1396522456_8" function="internal">
        <lane id=":1396522456_8_0" index="0" allow="delivery bicycle pedestrian" speed="5.56" length="4.82" shape="2449.25,2543.74 2450.71,2543.43 2451.58,2543.72 2451.88,2544.59 2451.60,2546.05"/>
    </edge>
    <edge id=":1396522464_0" function="internal">
        <lane id=":1396522464_0_0" index="0" allow="delivery bicycle pedestrian" speed="5.56" length="4.82" shape="2416.06,2582.20 2414.60,2582.51 2413.72,2582.22 2413.42,2581.35 2413.70,2579.89"/>
    </edge>
    <edge id=":1396522477_0" function="internal">
        <lane id=":1396522477_0_0" index="0" disallow="tram rail_urban rail rail_electric ship" speed="9.73" length="5.08" shape="2250.30,2512.80 2249.52,2511.63 2248.56,2511.02 2247.43,2510.97 2246.12,2511.48"/>
    </edge>
    <edge id=":1396522477_1" function="internal">
        <lane id=":1396522477_1_0" index="0" disallow="tram rail_urban rail rail_electric ship" speed="9.73" length="10.63" shape="2250.30,2512.80 2249.42,2509.99 2249.67,2507.62 2251.05,2505.69 2253.56,2504.19"/>
    </edge>
    <edge id=":1396522477_2" function="internal">
        <lane id=":1396522477_2_0" index="0" allow="delivery bicycle pedestrian" speed="5.56" length="4.82" shape="2250.30,2512.80 2250.51,2511.33 2251.07,2510.60 2252.00,2510.62 2253.27,2511.38"/>
    </edge>
    <edge id=":1396522477_3" function="internal">
        <lane id=":1396522477_3_0" index="0" allow="delivery bicycle pedestrian" speed="9.73" length="5.10" shape="2254.83,2507.24 2253.63,2507.96 2252.97,2508.89 2252.85,2510.02 2253.27,2511.38"/>
    </edge>
    <edge id=":1396522477_4" function="internal">
        <lane id=":1396522477_4_0" index="0" disallow="tram rail_urban rail rail_electric ship" speed="13.89" length="9.70" shape="2254.83,2507.24 2252.17,2508.35 2250.38,2509.17 2248.63,2510.08 2246.12,2511.48"/>
    </edge>
    <edge id=":1396522477_5" function="internal">
        <lane id=":1396522477_5_0" index="0" disallow="tram rail_urban rail rail_electric ship" speed="13.89" length="2.41" shape="2254.83,2507.24 2253.37,2506.95 2252.67,2506.35"/>
    </edge>
    <edge id=":1396522477_9" function="internal">
        <lane id=":1396522477_9_0" index="0" speed="13.89" length="2.41" shape="2252.67,2506.35 2252.73,2505.43 2253.56,2504.19"/>
    </edge>
    <edge id=":1396522477_6" function="internal">
        <lane id=":1396522477_6_0" index="0" disallow="tram rail_urban rail rail_electric ship" speed="13.89" length="10.09" shape="2244.50,2508.61 2247.10,2507.15 2248.93,2506.20 2250.81,2505.35 2253.56,2504.19"/>
    </edge>
    <edge id=":1396522477_7" function="internal">
        <lane id=":1396522477_7_0" index="0" allow="delivery bicycle pedestrian" speed="9.73" length="5.45" shape="2244.50,2508.61 2247.25,2507.54 2249.63,2507.64 2249.72,2507.71"/>
    </edge>
    <edge id=":1396522477_8" function="internal">
        <lane id=":1396522477_8_0" index="0" disallow="tram rail_urban rail rail_electric ship" speed="13.89" length="2.41" shape="2244.50,2508.61 2245.98,2508.72 2246.74,2509.24"/>
    </edge>
    <edge id=":1396522477_10" function="internal">
        <lane id=":1396522477_10_0" index="0" speed="9.73" length="5.22" shape="2249.72,2507.71 2251.64,2508.92 2253.27,2511.38"/>
    </edge>
    <edge id=":1396522477_11" function="internal">
        <lane id=":1396522477_11_0" index="0" speed="13.89" length="2.41" shape="2246.74,2509.24 2246.79,2510.16 2246.12,2511.48"/>
    </edge>
    <edge id=":1415103093_0" function="internal">
        <lane id=":1415103093_0_0" index="0" allow="bicycle" speed="9.73" length="4.17" width="1.00" shape="2273.34,2759.90 2272.55,2759.44 2271.70,2759.45 2270.78,2759.94 2269.81,2760.89"/>
    </edge>
    <edge id=":1415103093_1" function="internal">
        <lane id=":1415103093_1_0" index="0" disallow="tram rail_urban rail rail_electric ship" speed="13.89" length="4.60" shape="2273.34,2759.90 2269.92,2756.82"/>
    </edge>
    <edge id=":1415103093_2" function="internal">
        <lane id=":1415103093_2_0" index="0" disallow="tram rail_urban rail rail_electric ship" speed="13.89" length="2.41" shape="2273.34,2759.90 2272.98,2758.45 2273.23,2757.56"/>
    </edge>
    <edge id=":1415103093_9" function="internal">
        <lane id=":1415103093_9_0" index="0" speed="13.89" length="2.41" shape="2273.23,2757.56 2274.10,2757.23 2275.57,2757.45"/>
    </edge>
    <edge id=":1415103093_3" function="internal">
        <lane id=":1415103093_3_0" index="0" disallow="tram rail_urban rail rail_electric ship" speed="13.89" length="4.65" shape="2272.11,2754.35 2275.57,2757.45"/>
    </edge>
    <edge id=":1415103093_4" function="internal">
        <lane id=":1415103093_4_0" index="0" allow="bicycle" speed="9.73" length="2.72" width="1.00" shape="2272.11,2754.35 2272.66,2755.37 2272.46,2756.80 2272.41,2756.90"/>
    </edge>
    <edge id=":1415103093_5" function="internal">
        <lane id=":1415103093_5_0" index="0" disallow="tram rail_urban rail rail_electric ship" speed="13.89" length="2.41" shape="2272.11,2754.35 2272.49,2755.78 2272.25,2756.68"/>
    </edge>
    <edge id=":1415103093_10" function="internal">
        <lane id=":1415103093_10_0" index="0" speed="9.73" length="4.78" width="1.00" shape="2272.41,2756.90 2271.51,2758.64 2269.81,2760.89"/>
    </edge>
    <edge id=":1415103093_11" function="internal">
        <lane id=":1415103093_11_0" index="0" speed="13.89" length="2.41" shape="2272.25,2756.68 2271.40,2757.02 2269.92,2756.82"/>
    </edge>
    <edge id=":1415103093_6" function="internal">
        <lane id=":1415103093_6_0" index="0" disallow="tram rail_urban rail rail_electric ship" speed="9.73" length="3.83" shape="2268.97,2760.18 2269.79,2759.07 2270.23,2758.14 2270.27,2757.39 2269.92,2756.82"/>
    </edge>
    <edge id=":1415103093_7" function="internal">
        <lane id=":1415103093_7_0" index="0" disallow="tram rail_urban rail rail_electric ship" speed="9.73" length="7.95" shape="2268.97,2760.18 2270.95,2758.16 2272.71,2757.03 2274.25,2756.80 2275.57,2757.45"/>
    </edge>
    <edge id=":1415103093_8" function="internal">
        <lane id=":1415103093_8_0" index="0" allow="bicycle" speed="5.56" length="1.61" width="1.00" shape="2268.97,2760.18 2269.44,2760.04 2269.74,2760.11 2269.86,2760.40 2269.81,2760.89"/>
    </edge>
    <edge id=":153531786#2-AddedOffRampNode_0" function="internal">
        <lane id=":153531786#2-AddedOffRampNode_0_0" index="0" disallow="tram rail_urban rail rail_electric ship" speed="19.44" length="4.39" shape="2179.67,2616.31 2174.07,2620.77"/>
        <lane id=":153531786#2-AddedOffRampNode_0_1" index="1" disallow="tram rail_urban rail rail_electric ship" speed="19.44" length="4.39" shape="2179.67,2616.31 2175.55,2617.82"/>
        <lane id=":153531786#2-AddedOffRampNode_0_2" index="2" disallow="tram rail_urban rail rail_electric ship" speed="19.44" length="4.39" shape="2179.67,2616.31 2177.04,2614.87"/>
        <lane id=":153531786#2-AddedOffRampNode_0_3" index="3" disallow="tram rail_urban rail rail_electric ship" speed="19.44" length="4.39" shape="2181.15,2613.36 2178.52,2611.92"/>
    </edge>
    <edge id=":161226647#0-AddedOffRampNode_0" function="internal">
        <lane id=":161226647#0-AddedOffRampNode_0_0" index="0" disallow="tram rail_urban rail rail_electric ship" speed="19.44" length="4.39" shape="1716.26,2392.49 1721.83,2387.99"/>
        <lane id=":161226647#0-AddedOffRampNode_0_1" index="1" disallow="tram rail_urban rail rail_electric ship" speed="19.44" length="4.39" shape="1716.26,2392.49 1720.37,2390.95"/>
        <lane id=":161226647#0-AddedOffRampNode_0_2" index="2" disallow="tram rail_urban rail rail_electric ship" speed="19.44" length="4.39" shape="1716.26,2392.49 1718.91,2393.91"/>
        <lane id=":161226647#0-AddedOffRampNode_0_3" index="3" disallow="tram rail_urban rail rail_electric ship" speed="19.44" length="4.39" shape="1714.80,2395.45 1717.45,2396.87"/>
    </edge>
    <edge id=":1732237923_0" function="internal">
        <lane id=":1732237923_0_0" index="0" allow="delivery bicycle pedestrian" speed="5.56" length="5.01" shape="1569.92,2370.59 1568.67,2370.02 1567.54,2369.99 1566.53,2370.50 1565.64,2371.56"/>
    </edge>
    <edge id=":1732237923_1" function="internal">
        <lane id=":1732237923_1_0" index="0" allow="delivery bicycle pedestrian" speed="5.56" length="10.32" shape="1569.92,2370.59 1567.76,2368.74 1566.70,2366.65 1566.73,2364.32 1567.86,2361.75"/>
    </edge>
    <edge id=":1732237923_2" function="internal">
        <lane id=":1732237923_2_0" index="0" allow="delivery bicycle pedestrian" speed="5.56" length="4.82" shape="1569.92,2370.59 1569.32,2369.23 1569.42,2368.31 1570.21,2367.84 1571.70,2367.81"/>
    </edge>
    <edge id=":1732237923_3" function="internal">
        <lane id=":1732237923_3_0" index="0" allow="delivery bicycle pedestrian" speed="5.56" length="5.05" shape="1570.66,2363.49 1570.12,2364.74 1570.11,2365.88 1570.64,2366.90 1571.70,2367.81"/>
    </edge>
    <edge id=":1732237923_4" function="internal">
        <lane id=":1732237923_4_0" index="0" allow="delivery bicycle pedestrian" speed="5.56" length="9.50" shape="1570.66,2363.49 1565.64,2371.56"/>
    </edge>
    <edge id=":1732237923_5" function="internal">
        <lane id=":1732237923_5_0" index="0" allow="delivery bicycle pedestrian" speed="5.56" length="4.82" shape="1570.66,2363.49 1569.31,2364.11 1568.39,2364.02 1567.91,2363.23 1567.86,2361.75"/>
    </edge>
    <edge id=":1732237923_6" function="internal">
        <lane id=":1732237923_6_0" index="0" allow="delivery bicycle pedestrian" speed="5.56" length="9.50" shape="1562.84,2369.81 1567.86,2361.75"/>
    </edge>
    <edge id=":1732237923_7" function="internal">
        <lane id=":1732237923_7_0" index="0" allow="delivery bicycle pedestrian" speed="5.56" length="10.38" shape="1562.84,2369.81 1564.68,2367.63 1566.76,2366.57 1569.10,2366.63 1571.70,2367.81"/>
    </edge>
    <edge id=":1732237923_8" function="internal">
        <lane id=":1732237923_8_0" index="0" allow="delivery bicycle pedestrian" speed="5.56" length="4.82" shape="1562.84,2369.81 1564.20,2369.20 1565.12,2369.28 1565.60,2370.07 1565.64,2371.56"/>
    </edge>
    <edge id=":1732237931_0" function="internal">