<?xml version="1.0" encoding="UTF-8"?>

<!-- generated on Tue Sep  5 12:38:52 2017 by SUMO polyconvert Version 0.30.0
<?xml version="1.0" encoding="UTF-8"?>

<configuration xmlns:xsi="http://www.w3.org/2001/XMLSchema-instance" xsi:noNamespaceSchemaLocation="http://sumo.dlr.de/xsd/polyconvertConfiguration.xsd">

    <input>
        <net-file value="aarhus.net"/>
        <osm-files value="map.osm"/>
        <type-file value="typemap.xml"/>
    </input>

    <output>
        <output-file value="berlin.poly.xml"/>
    </output>

    <processing>
        <poi-layer-offset value="5"/>
    </processing>

</configuration>
-->

<additional xmlns:xsi="http://www.w3.org/2001/XMLSchema-instance" xsi:noNamespaceSchemaLocation="http://sumo.dlr.de/xsd/additional_file.xsd">
    <location netOffset="-572362.54,-6224525.94" convBoundary="0.00,0.00,3325.57,4433.98" origBoundary="10.165526,56.159771,10.219580,56.199932" projParameter="+proj=utm +zone=32 +ellps=WGS84 +datum=WGS84 +units=m +no_defs"/>

    <poly id="116378159" type="parking" color="184,184,179" fill="1" layer="-1.00" shape="1638.64,2651.61 1640.82,2645.95 1576.67,2621.18 1574.48,2626.83 1638.64,2651.61"/>
    <poly id="116378161" type="parking" color="184,184,179" fill="1" layer="-1.00" shape="1621.03,2512.75 1626.21,2502.36 1701.32,2540.22 1697.88,2546.64 1702.18,2548.55 1700.45,2552.00 1621.03,2512.75"/>
    <poly id="116378162" type="parking" color="184,184,179" fill="1" layer="-1.00" shape="1796.35,2582.25 1791.83,2592.81 1721.60,2562.01 1724.70,2556.09 1716.75,2552.95 1719.33,2548.51 1796.35,2582.25"/>
    <poly id="116382263" type="building" color="255,230,230" fill="1" layer="-1.00" shape="1602.85,2621.27 1609.43,2623.90 1615.11,2609.79 1608.53,2607.14 1602.85,2621.27"/>
    <poly id="116382265" type="building" color="255,230,230" fill="1" layer="-1.00" shape="1631.42,2632.92 1631.58,2632.56 1637.10,2619.04 1630.72,2616.43 1625.14,2630.09 1631.42,2632.92"/>
    <poly id="121649035" type="parking" color="184,184,179" fill="1" layer="-1.00" shape="2761.93,3073.97 2782.89,3086.78 2799.83,3090.22 2802.48,3085.95 2807.07,3088.75 2810.18,3083.67 2829.19,3095.28 2838.60,3079.93 2779.09,3043.59 2769.57,3059.12 2770.64,3059.78 2761.93,3073.97"/>
    <poly id="122670991" type="building" color="255,230,230" fill="1" layer="-1.00" shape="1965.43,3221.39 1974.96,3228.69 2012.30,3180.78 2002.05,3173.45 1965.43,3221.39"/>
    <poly id="122670992" type="building" color="255,230,230" fill="1" layer="-1.00" shape="1789.92,3230.92 1799.45,3238.23 1836.79,3190.31 1826.53,3182.98 1789.92,3230.92"/>
    <poly id="122670993" type="building" color="255,230,230" fill="1" layer="-1.00" shape="1754.79,3203.17 1764.33,3210.48 1801.66,3162.56 1791.41,3155.24 1754.79,3203.17"/>
    <poly id="122670994" type="building" color="255,230,230" fill="1" layer="-1.00" shape="1860.32,3141.02 1869.86,3148.32 1907.20,3100.41 1896.94,3093.09 1860.32,3141.02"/>
    <poly id="122670995" type="building" color="255,230,230" fill="1" layer="-1.00" shape="1930.24,3194.70 1939.77,3202.00 1977.10,3154.09 1966.86,3146.77 1930.24,3194.70"/>
    <poly id="122670997" type="building" color="255,230,230" fill="1" layer="-1.00" shape="1894.91,3168.15 1904.45,3175.46 1941.78,3127.54 1931.53,3120.23 1894.91,3168.15"/>
    <poly id="122670998" type="building" color="255,230,230" fill="1" layer="-1.00" shape="1823.83,3256.50 1833.36,3263.81 1870.70,3215.89 1860.44,3208.58 1823.83,3256.50"/>
    <poly id="122670999" type="building" color="255,230,230" fill="1" layer="-1.00" shape="1825.54,3116.19 1830.90,3120.29 1835.08,3123.49 1872.41,3075.58 1862.16,3068.26 1828.13,3112.81 1825.54,3116.19"/>
    <poly id="123594833" type="building" color="255,230,230" fill="1" layer="-1.00" shape="1921.36,3180.48 1917.48,3177.50 1922.24,3171.20 1926.26,3174.46 1921.36,3180.48"/>
    <poly id="123594840" type="building" color="255,230,230" fill="1" layer="-1.00" shape="1806.29,3178.05 1802.41,3175.07 1807.18,3168.77 1811.20,3172.03 1806.29,3178.05"/>
    <poly id="123594852" type="building" color="255,230,230" fill="1" layer="-1.00" shape="1886.73,3154.75 1882.85,3151.78 1887.62,3145.47 1891.64,3148.73 1886.73,3154.75"/>
    <poly id="123594853" type="building" color="255,230,230" fill="1" layer="-1.00" shape="1843.34,3206.42 1839.46,3203.45 1844.23,3197.14 1848.25,3200.40 1843.34,3206.42"/>
    <poly id="123594859" type="building" color="255,230,230" fill="1" layer="-1.00" shape="1955.97,3206.93 1952.09,3203.95 1956.85,3197.65 1960.87,3200.91 1955.97,3206.93"/>
    <poly id="123594873" type="building" color="255,230,230" fill="1" layer="-1.00" shape="1815.39,3140.30 1830.90,3120.29 1825.54,3116.19 1828.13,3112.81 1820.62,3107.14 1802.60,3130.78 1815.39,3140.30"/>
    <poly id="123916710" type="building" color="255,230,230" fill="1" layer="-1.00" shape="1499.69,2224.56 1497.48,2216.98 1509.10,2213.60 1507.01,2206.45 1513.33,2204.62 1512.64,2202.27 1518.32,2200.62 1520.81,2209.17 1515.70,2210.66 1518.19,2219.18 1499.69,2224.56"/>
    <poly id="123916720" type="building" color="255,230,230" fill="1" layer="-1.00" shape="1879.56,2100.19 1882.26,2104.78 1885.34,2102.97 1887.67,2106.93 1897.35,2101.27 1898.26,2100.72 1900.25,2099.56 1897.44,2094.78 1894.59,2096.45 1892.37,2092.68 1883.48,2097.90 1881.99,2098.76 1879.56,2100.19"/>
    <poly id="123916770" type="building" color="255,230,230" fill="1" layer="-1.00" shape="1949.96,2139.10 1949.64,2124.78 1961.36,2124.53 1961.68,2138.84 1949.96,2139.10"/>
    <poly id="123916801" type="building" color="255,230,230" fill="1" layer="-1.00" shape="1531.37,2240.29 1541.18,2230.61 1548.85,2238.52 1540.42,2247.55 1531.37,2240.29"/>
    <poly id="123916806" type="building" color="255,230,230" fill="1" layer="-1.00" shape="1925.95,2178.84 1927.28,2149.18 1927.55,2148.65 1940.40,2149.55 1938.10,2179.97 1925.95,2178.84"/>
    <poly id="123916862" type="building" color="255,230,230" fill="1" layer="-1.00" shape="1816.53,1997.61 1807.86,1962.24 1816.97,1960.01 1818.34,1965.58 1823.81,1964.25 1831.11,1994.06 1816.53,1997.61"/>
    <poly id="123916869" type="building" color="255,230,230" fill="1" layer="-1.00" shape="1992.78,2228.89 1996.11,2230.37 1995.29,2232.02 2017.81,2240.52 2030.56,2245.48 2031.63,2243.57 2034.34,2244.69 2036.96,2238.46 1995.66,2222.00 1992.78,2228.89"/>
    <poly id="123916881" type="amenity" color="237,199,199" fill="1" layer="-1.00" shape="1858.05,1980.48 1858.58,1982.52 1861.47,1983.48 1864.52,1982.81 1866.14,1980.57 1865.61,1978.54 1881.49,1974.46 1877.66,1959.60 1876.03,1953.28 1837.40,1963.18 1838.67,1968.09 1835.60,1968.89 1838.50,1980.11 1841.73,1979.28 1843.03,1984.33 1858.05,1980.48"/>
    <poly id="123916881#1" type="building" color="255,230,230" fill="1" layer="-1.00" shape="1858.05,1980.48 1858.58,1982.52 1861.47,1983.48 1864.52,1982.81 1866.14,1980.57 1865.61,1978.54 1881.49,1974.46 1877.66,1959.60 1876.03,1953.28 1837.40,1963.18 1838.67,1968.09 1835.60,1968.89 1838.50,1980.11 1841.73,1979.28 1843.03,1984.33 1858.05,1980.48"/>
    <poly id="123916884" type="building" color="255,230,230" fill="1" layer="-1.00" shape="2113.96,2038.41 2117.70,2010.13 2121.40,2010.62 2123.79,1992.54 2113.61,1991.42 2112.53,2002.13 2111.73,2008.15 2107.35,2007.57 2103.46,2037.03 2113.96,2038.41"/>
    <poly id="123916918" type="building" color="255,230,230" fill="1" layer="-1.00" shape="2076.15,2044.96 2079.89,2016.68 2083.60,2017.17 2085.99,1999.08 2076.16,1997.79 2073.93,2014.69 2069.54,2014.12 2065.65,2043.57 2076.15,2044.96"/>
    <poly id="125009856" type="building" color="255,230,230" fill="1" layer="-1.00" shape="2131.60,1997.03 2142.20,1998.21 2145.37,1970.15 2148.42,1970.49 2150.05,1956.15 2158.09,1957.06 2159.08,1948.26 2164.01,1948.82 2167.49,1917.97 2170.68,1918.32 2172.52,1902.01 2162.33,1900.87 2160.48,1917.32 2154.52,1916.65 2150.45,1952.66 2141.81,1951.68 2140.17,1966.18 2135.15,1965.62 2131.60,1997.03"/>
    <poly id="125693072" type="tourism" color="207,245,201" fill="1" layer="-2.00" shape="1733.92,2024.66 1812.63,2003.39 1801.28,1958.42 1720.16,1977.79 1733.92,2024.66"/>
    <poly id="125693075" type="leisure" color="207,245,201" fill="1" layer="-2.00" shape="1712.72,2030.68 1733.84,2024.86 1720.22,1979.20 1705.01,1982.43 1712.72,2030.68"/>
    <poly id="125806758" type="parking" color="184,184,179" fill="1" layer="-1.00" shape="1831.70,1991.62 1832.61,1995.23 1829.18,1996.09 1830.99,2003.25 1895.82,1986.91 1893.10,1976.14 1831.70,1991.62"/>
    <poly id="125813022" type="parking" color="184,184,179" fill="1" layer="-1.00" shape="2138.46,2142.75 2161.71,2151.93 2157.77,2162.01 2170.17,2167.14 2193.10,2161.76 2186.59,2136.70 2191.48,2127.27 2157.65,2113.67 2153.23,2124.98 2162.65,2128.93 2158.90,2138.96 2142.72,2132.60 2138.46,2142.75"/>
    <poly id="125813122" type="building" color="255,230,230" fill="1" layer="-1.00" shape="2125.58,2158.28 2146.42,2166.28 2151.39,2153.40 2130.54,2145.41 2125.58,2158.28"/>
    <poly id="125813123" type="building" color="255,230,230" fill="1" layer="-1.00" shape="2132.14,2169.82 2139.81,2172.76 2141.14,2169.32 2133.46,2166.37 2132.14,2169.82"/>
    <poly id="125813425" type="leisure" color="207,245,201" fill="1" layer="-2.00" shape="2218.90,2188.03 2257.92,2179.79 2264.38,2178.42 2259.25,2154.25 2213.76,2163.86 2218.90,2188.03"/>
    <poly id="125813678" type="building" color="255,230,230" fill="1" layer="-1.00" shape="2210.23,2002.18 2205.76,2012.94 2208.33,2014.65 2196.27,2045.57 2205.94,2049.24 2213.17,2049.67 2228.90,2009.82 2210.23,2002.18"/>
    <poly id="125814531" type="building" color="255,230,230" fill="1" layer="-1.00" shape="2087.97,2255.97 2079.29,2277.89 2088.62,2281.62 2089.54,2278.96 2096.70,2281.72 2096.55,2282.28 2107.46,2286.45 2117.46,2259.52 2106.60,2255.20 2101.19,2270.21 2094.22,2267.64 2096.88,2259.77 2087.97,2255.97"/>
    <poly id="125814533" type="building" color="255,230,230" fill="1" layer="-1.00" shape="2111.36,2223.56 2120.88,2198.87 2132.24,2203.23 2122.72,2227.92 2111.36,2223.56"/>
    <poly id="125814867" type="tourism" color="207,245,201" fill="1" layer="-2.00" shape="1686.77,2281.14 1701.92,2291.36 1704.75,2291.41 1707.11,2289.13 1713.47,2277.94 1713.35,2275.61 1686.77,2281.14"/>
    <poly id="125815220" type="building" color="255,230,230" fill="1" layer="-1.00" shape="2158.74,2111.60 2166.82,2092.30 2179.40,2097.08 2180.70,2097.60 2186.29,2082.90 2188.53,2078.45 2203.23,2084.35 2207.30,2079.51 2216.02,2091.11 2191.83,2124.06 2158.74,2111.60"/>
    <poly id="125826084" type="leisure" color="207,245,201" fill="1" layer="-2.00" shape="2296.16,2585.72 2297.28,2579.17 2301.72,2554.32 2303.81,2548.42 2300.72,2543.83 2286.80,2548.37 2284.29,2551.19 2278.87,2555.75 2275.57,2557.81 2290.21,2588.01 2296.16,2585.72"/>
    <poly id="125983987" type="building" color="255,230,230" fill="1" layer="-1.00" shape="1705.32,1965.93 1752.06,1953.69 1754.59,1963.31 1707.84,1975.54 1705.32,1965.93"/>
    <poly id="125985622" type="building" color="255,230,230" fill="1" layer="-1.00" shape="1927.59,1984.59 1935.26,1982.96 1932.91,1971.89 1927.41,1973.05 1928.20,1976.77 1926.03,1977.23 1927.59,1984.59"/>
    <poly id="125985623" type="building" color="255,230,230" fill="1" layer="-1.00" shape="1927.81,1996.20 1933.29,1995.05 1935.51,1994.59 1933.16,1983.50 1927.66,1984.67 1928.45,1988.40 1926.28,1988.85 1927.81,1996.20"/>
    <poly id="125985624" type="building" color="255,230,230" fill="1" layer="-1.00" shape="1928.26,2019.52 1935.94,2017.91 1933.59,2006.82 1928.09,2007.99 1928.87,2011.71 1926.71,2012.17 1928.26,2019.52"/>
    <poly id="125985626" type="building" color="255,230,230" fill="1" layer="-1.00" shape="1927.96,2007.74 1935.63,2006.13 1933.29,1995.05 1927.81,1996.20 1928.60,1999.93 1926.41,2000.40 1927.96,2007.74"/>
    <poly id="125985653" type="building" color="255,230,230" fill="1" layer="-1.00" shape="1957.70,1999.21 1965.07,1998.67 1964.75,1994.24 1967.52,1994.04 1967.13,1988.82 1961.42,1989.25 1961.59,1991.61 1957.16,1991.94 1957.70,1999.21"/>
    <poly id="125985654" type="building" color="255,230,230" fill="1" layer="-1.00" shape="1958.70,1987.91 1966.07,1987.37 1965.74,1982.93 1968.52,1982.74 1968.13,1977.52 1962.42,1977.94 1962.59,1980.30 1958.16,1980.62 1958.70,1987.91"/>
    <poly id="125985656" type="building" color="255,230,230" fill="1" layer="-1.00" shape="1956.84,2011.09 1964.21,2010.55 1963.88,2006.11 1966.66,2005.92 1966.27,2000.70 1960.56,2001.12 1960.73,2003.49 1956.30,2003.81 1956.84,2011.09"/>
    <poly id="126083545" type="building" color="255,230,230" fill="1" layer="-1.00" shape="2022.25,2009.41 2021.37,2009.54 2021.03,2007.31 2015.85,2008.08 2016.52,2012.55 2014.90,2012.79 2016.62,2024.33 2014.72,2024.61 2016.42,2036.00 2014.54,2036.28 2016.24,2047.67 2014.30,2047.96 2015.95,2058.99 2014.02,2059.28 2015.16,2066.90 2023.53,2065.65 2022.46,2058.47 2021.69,2058.58 2021.10,2054.56 2023.72,2054.18 2022.70,2047.32 2021.98,2047.42 2021.30,2042.82 2023.63,2042.49 2022.50,2034.94 2022.14,2034.99 2021.51,2030.79 2023.61,2030.47 2022.53,2023.26 2021.92,2023.35 2021.29,2019.16 2023.65,2018.80 2022.25,2009.41"/>
    <poly id="126083799" type="building" color="255,230,230" fill="1" layer="-1.00" shape="1989.90,2015.79 1990.74,2020.47 1986.60,2021.20 1987.92,2028.58 1990.09,2028.20 1990.76,2031.95 1986.52,2032.70 1987.88,2040.28 1990.42,2039.84 1991.12,2043.79 1986.71,2044.58 1988.03,2051.92 1990.72,2051.44 1991.48,2055.70 1986.93,2056.51 1988.23,2063.73 1990.80,2063.27 1991.44,2066.87 1987.10,2067.66 1988.49,2075.45 1995.91,2074.13 1995.11,2069.63 1997.86,2069.14 1996.87,2063.63 1995.85,2063.81 1994.79,2057.87 1997.84,2057.33 1996.91,2052.15 1995.77,2052.35 1994.67,2046.23 1997.52,2045.73 1996.59,2040.55 1995.64,2040.71 1994.42,2033.90 1997.23,2033.40 1996.44,2028.97 1995.31,2029.17 1994.09,2022.35 1997.13,2021.80 1996.30,2017.15 1995.29,2017.33 1994.86,2014.91 1989.90,2015.79"/>
    <poly id="126084099" type="building" color="255,230,230" fill="1" layer="-1.00" shape="1962.72,2023.69 1957.29,2024.89 1958.38,2029.81 1956.57,2030.20 1959.02,2041.24 1957.00,2041.68 1959.49,2052.94 1957.59,2053.36 1960.03,2064.37 1958.05,2064.80 1960.54,2076.01 1958.67,2076.42 1960.36,2084.07 1968.21,2082.33 1966.54,2074.78 1965.91,2074.91 1965.03,2070.94 1967.46,2070.40 1965.86,2063.19 1965.45,2063.28 1964.58,2059.34 1967.06,2058.79 1965.50,2051.73 1965.01,2051.84 1964.08,2047.64 1966.56,2047.08 1964.94,2039.76 1964.37,2039.89 1963.49,2035.86 1966.06,2035.30 1964.47,2028.10 1963.73,2028.26 1962.72,2023.69"/>
    <poly id="126084538" type="building" color="255,230,230" fill="1" layer="-1.00" shape="1992.44,1990.05 2000.45,1989.74 2000.16,1982.31 1999.65,1982.33 1999.58,1980.53 1994.38,1980.73 1994.45,1982.46 1992.14,1982.56 1992.44,1990.05"/>
    <poly id="126084546" type="building" color="255,230,230" fill="1" layer="-1.00" shape="1990.17,2001.83 1998.19,2001.51 1997.89,1994.08 1997.38,1994.10 1997.31,1992.30 1992.11,1992.50 1992.18,1994.25 1989.88,1994.33 1990.17,2001.83"/>
    <poly id="126084549" type="building" color="255,230,230" fill="1" layer="-1.00" shape="1994.72,1977.77 2002.73,1977.45 2002.43,1970.02 2001.92,1970.05 2001.86,1968.24 1996.65,1968.44 1996.72,1970.19 1994.42,1970.27 1994.72,1977.77"/>
    <poly id="126084829" type="building" color="255,230,230" fill="1" layer="-1.00" shape="2019.01,1993.74 2026.09,1994.49 2026.59,1989.69 2029.77,1990.02 2030.26,1985.48 2024.35,1984.85 2024.13,1986.88 2019.78,1986.42 2019.01,1993.74"/>
    <poly id="126084832" type="building" color="255,230,230" fill="1" layer="-1.00" shape="2021.99,1981.97 2029.07,1982.72 2029.57,1977.93 2032.75,1978.26 2033.24,1973.71 2027.33,1973.09 2027.11,1975.12 2022.76,1974.65 2021.99,1981.97"/>
    <poly id="126085145" type="building" color="255,230,230" fill="1" layer="-1.00" shape="2052.11,1985.20 2060.18,1987.03 2061.89,1979.55 2061.40,1979.44 2061.75,1977.90 2056.12,1976.62 2055.65,1978.67 2053.69,1978.23 2052.11,1985.20"/>
    <poly id="126087651" type="building" color="255,230,230" fill="1" layer="-1.00" shape="1786.17,2128.56 1788.87,2133.14 1791.94,2131.34 1794.27,2135.30 1803.95,2129.63 1804.87,2129.10 1806.86,2127.93 1804.05,2123.15 1801.19,2124.82 1798.98,2121.06 1790.08,2126.26 1788.60,2127.13 1786.17,2128.56"/>
    <poly id="126087652" type="building" color="255,230,230" fill="1" layer="-1.00" shape="1805.08,2122.77 1807.78,2127.35 1810.86,2125.55 1813.19,2129.51 1822.87,2123.84 1823.78,2123.30 1825.78,2122.13 1822.97,2117.35 1820.10,2119.03 1817.89,2115.26 1809.00,2120.47 1807.51,2121.34 1805.08,2122.77"/>
    <poly id="126087653" type="building" color="255,230,230" fill="1" layer="-1.00" shape="1824.03,2117.00 1826.73,2121.59 1829.80,2119.80 1832.13,2123.76 1841.81,2118.08 1842.73,2117.55 1844.72,2116.38 1841.91,2111.60 1839.06,2113.28 1836.84,2109.50 1827.94,2114.71 1826.45,2115.59 1824.03,2117.00"/>
    <poly id="126087654" type="building" color="255,230,230" fill="1" layer="-1.00" shape="1861.22,2105.73 1863.92,2110.32 1866.99,2108.52 1869.33,2112.48 1879.00,2106.80 1879.92,2106.27 1881.91,2105.09 1879.10,2100.33 1876.25,2102.00 1874.03,2098.22 1865.14,2103.43 1863.65,2104.31 1861.22,2105.73"/>
    <poly id="126087655" type="building" color="255,230,230" fill="1" layer="-1.00" shape="1842.66,2111.38 1845.36,2115.97 1848.43,2114.18 1850.76,2118.14 1860.44,2112.46 1861.36,2111.93 1863.35,2110.76 1860.54,2105.98 1857.68,2107.66 1855.46,2103.88 1846.57,2109.09 1845.09,2109.97 1842.66,2111.38"/>
    <poly id="126089903" type="building" color="255,230,230" fill="1" layer="-1.00" shape="1781.45,2088.70 1795.34,2081.46 1797.31,2085.24 1799.85,2090.08 1789.69,2095.38 1787.55,2091.29 1783.82,2093.24 1781.45,2088.70"/>
    <poly id="126089905" type="building" color="255,230,230" fill="1" layer="-1.00" shape="1816.77,2080.03 1833.16,2071.16 1835.04,2074.64 1837.61,2079.37 1827.57,2084.79 1825.66,2081.28 1819.31,2084.71 1816.77,2080.03"/>
    <poly id="126089911" type="building" color="255,230,230" fill="1" layer="-1.00" shape="1854.20,2069.38 1870.59,2060.52 1872.48,2063.99 1875.05,2068.72 1865.01,2074.14 1863.09,2070.62 1856.74,2074.05 1854.20,2069.38"/>
    <poly id="126089913" type="building" color="255,230,230" fill="1" layer="-1.00" shape="1797.79,2085.36 1814.18,2076.50 1816.06,2079.96 1818.63,2084.70 1808.59,2090.13 1806.68,2086.61 1800.33,2090.04 1797.79,2085.36"/>
    <poly id="126089917" type="building" color="255,230,230" fill="1" layer="-1.00" shape="1835.69,2074.74 1852.08,2065.88 1853.96,2069.34 1856.53,2074.07 1846.48,2079.50 1844.58,2075.98 1838.23,2079.42 1835.69,2074.74"/>
    <poly id="126089919" type="building" color="255,230,230" fill="1" layer="-1.00" shape="1872.62,2063.94 1889.06,2055.08 1890.87,2058.57 1894.60,2056.55 1897.05,2061.53 1883.43,2068.88 1881.63,2065.21 1875.16,2068.56 1872.62,2063.94"/>
    <poly id="126091121" type="building" color="255,230,230" fill="1" layer="-1.00" shape="1792.97,2038.64 1809.57,2030.30 1811.10,2033.32 1813.73,2038.54 1803.67,2043.59 1801.77,2039.83 1795.23,2043.11 1792.97,2038.64"/>
    <poly id="126091122" type="building" color="255,230,230" fill="1" layer="-1.00" shape="1830.78,2029.05 1847.39,2020.71 1848.91,2023.73 1851.55,2028.96 1841.49,2034.00 1839.58,2030.24 1833.04,2033.52 1830.78,2029.05"/>
    <poly id="126091124" type="building" color="255,230,230" fill="1" layer="-1.00" shape="1776.31,2042.17 1790.83,2034.98 1792.36,2038.05 1794.97,2043.32 1784.89,2048.30 1783.03,2044.55 1778.58,2046.75 1776.31,2042.17"/>
    <poly id="126091125" type="building" color="255,230,230" fill="1" layer="-1.00" shape="1811.86,2033.86 1828.47,2025.52 1829.99,2028.54 1832.63,2033.75 1822.57,2038.81 1820.67,2035.03 1814.12,2038.33 1811.86,2033.86"/>
    <poly id="126091126" type="building" color="255,230,230" fill="1" layer="-1.00" shape="1849.35,2024.14 1865.96,2015.80 1867.48,2018.82 1870.12,2024.05 1860.06,2029.10 1858.15,2025.33 1851.61,2028.62 1849.35,2024.14"/>
    <poly id="126091127" type="building" color="255,230,230" fill="1" layer="-1.00" shape="1868.02,2019.49 1884.63,2011.17 1886.35,2014.60 1890.00,2012.77 1892.44,2017.63 1888.81,2019.46 1878.74,2024.50 1876.83,2020.69 1870.27,2023.98 1868.02,2019.49"/>
    <poly id="126092752" type="building" color="255,230,230" fill="1" layer="-1.00" shape="1934.21,2032.22 1929.96,2033.31 1931.09,2037.68 1926.74,2038.80 1928.61,2046.08 1931.05,2045.45 1932.05,2049.34 1927.52,2050.50 1929.46,2058.09 1932.03,2057.44 1932.97,2061.05 1928.50,2062.20 1930.31,2069.27 1932.79,2068.64 1933.76,2072.43 1929.48,2073.52 1931.34,2080.79 1933.56,2080.23 1934.61,2084.31 1930.49,2085.36 1932.38,2092.72 1939.48,2090.91 1938.21,2085.93 1940.90,2085.26 1939.81,2081.02 1938.74,2081.29 1937.04,2074.65 1940.17,2073.84 1938.95,2069.09 1937.88,2069.36 1936.26,2063.03 1939.43,2062.23 1938.26,2057.68 1936.99,2058.01 1935.35,2051.59 1938.66,2050.74 1937.45,2045.99 1935.99,2046.36 1934.31,2039.81 1937.65,2038.95 1936.33,2033.78 1934.72,2034.19 1934.21,2032.22"/>
    <poly id="126093299" type="building" color="255,230,230" fill="1" layer="-1.00" shape="2051.05,2094.09 2060.82,2097.77 2063.67,2090.26 2053.89,2086.57 2051.05,2094.09"/>
    <poly id="126093303" type="building" color="255,230,230" fill="1" layer="-1.00" shape="2117.51,2070.78 2120.49,2063.24 2111.88,2059.85 2106.63,2061.44 2106.21,2060.27 2100.53,2061.42 2102.04,2069.40 2108.90,2067.39 2117.51,2070.78"/>
    <poly id="126093304" type="building" color="255,230,230" fill="1" layer="-1.00" shape="2112.39,2083.26 2115.51,2075.63 2106.67,2072.04 2103.56,2079.67 2112.39,2083.26"/>
    <poly id="126093307" type="building" color="255,230,230" fill="1" layer="-1.00" shape="2101.08,2094.38 2104.56,2085.52 2095.98,2082.15 2092.49,2091.02 2101.08,2094.38"/>
    <poly id="126093310" type="building" color="255,230,230" fill="1" layer="-1.00" shape="1988.07,2113.62 1994.28,2114.78 1995.72,2107.09 1989.51,2105.94 1988.07,2113.62"/>
    <poly id="126093313" type="building" color="255,230,230" fill="1" layer="-1.00" shape="2035.56,2101.95 2044.22,2105.36 2047.95,2095.93 2039.29,2092.52 2035.56,2101.95"/>
    <poly id="126093316" type="building" color="255,230,230" fill="1" layer="-1.00" shape="2066.39,2079.58 2071.39,2081.39 2074.64,2072.49 2069.65,2070.67 2066.39,2079.58"/>
    <poly id="126093319" type="building" color="255,230,230" fill="1" layer="-1.00" shape="2004.60,2100.19 2014.33,2097.43 2011.71,2088.22 2001.98,2090.99 2004.60,2100.19"/>
    <poly id="126093325" type="building" color="255,230,230" fill="1" layer="-1.00" shape="1988.41,2109.96 1989.25,2105.93 1983.97,2104.84 1983.13,2108.87 1988.41,2109.96"/>
    <poly id="126093331" type="building" color="255,230,230" fill="1" layer="-1.00" shape="2003.35,2104.83 2009.98,2105.06 2010.09,2101.68 2003.47,2101.45 2003.35,2104.83"/>
    <poly id="126093334" type="building" color="255,230,230" fill="1" layer="-1.00" shape="1993.72,2102.00 2002.05,2102.31 2002.15,2099.54 1993.82,2099.23 1993.72,2102.00"/>
    <poly id="126093986" type="building" color="255,230,230" fill="1" layer="-1.00" shape="1916.75,2119.24 1914.30,2119.16 1914.27,2120.26 1906.78,2120.03 1906.56,2136.83 1915.24,2137.09 1915.34,2129.73 1916.62,2129.75 1916.63,2128.66 1918.55,2128.72 1918.83,2119.29 1916.75,2119.24"/>
    <poly id="126093989" type="building" color="255,230,230" fill="1" layer="-1.00" shape="2093.80,2118.60 2096.77,2111.02 2087.70,2107.45 2084.71,2115.05 2093.80,2118.60"/>
    <poly id="126093992" type="building" color="255,230,230" fill="1" layer="-1.00" shape="1897.53,2136.11 1895.51,2127.02 1885.04,2129.34 1887.06,2138.43 1897.53,2136.11"/>
    <poly id="126093997" type="building" color="255,230,230" fill="1" layer="-1.00" shape="1828.31,2154.24 1838.00,2151.98 1835.91,2143.09 1826.22,2145.35 1828.31,2154.24"/>
    <poly id="126093999" type="building" color="255,230,230" fill="1" layer="-1.00" shape="1930.62,2140.57 1942.16,2140.91 1942.33,2135.01 1930.80,2134.68 1930.62,2140.57"/>
    <poly id="126094002" type="building" color="255,230,230" fill="1" layer="-1.00" shape="2039.23,2121.16 2043.28,2111.10 2035.55,2108.01 2031.50,2118.07 2039.23,2121.16"/>
    <poly id="126094005" type="building" color="255,230,230" fill="1" layer="-1.00" shape="1946.44,2118.34 1963.68,2113.26 1960.96,2104.05 1943.72,2109.13 1946.44,2118.34"/>
    <poly id="126094008" type="building" color="255,230,230" fill="1" layer="-1.00" shape="1965.07,2112.19 1968.47,2111.21 1966.32,2103.81 1962.92,2104.80 1965.07,2112.19"/>
    <poly id="126094009" type="building" color="255,230,230" fill="1" layer="-1.00" shape="1858.15,2151.84 1881.52,2147.20 1879.72,2138.15 1856.35,2142.79 1858.15,2151.84"/>
    <poly id="126094011" type="building" color="255,230,230" fill="1" layer="-1.00" shape="1883.90,2139.11 1886.88,2138.44 1885.36,2131.56 1883.89,2131.88 1882.38,2132.22 1883.90,2139.11"/>
    <poly id="126094012" type="building" color="255,230,230" fill="1" layer="-1.00" shape="1929.49,2129.93 1936.88,2129.09 1935.99,2121.34 1928.60,2122.18 1929.49,2129.93"/>
    <poly id="126094014" type="building" color="255,230,230" fill="1" layer="-1.00" shape="2025.77,2119.95 2032.18,2122.51 2033.51,2119.17 2027.10,2116.62 2025.77,2119.95"/>
    <poly id="126096441" type="building" color="255,230,230" fill="1" layer="-1.00" shape="1900.82,2270.32 1898.29,2270.75 1899.21,2276.09 1903.66,2275.33 1928.12,2271.06 1927.83,2269.38 1929.43,2269.11 1927.07,2255.33 1930.75,2254.70 1929.35,2246.57 1901.73,2251.28 1903.19,2259.85 1905.01,2259.54 1906.42,2267.76 1900.56,2268.76 1900.82,2270.32"/>
    <poly id="126096731" type="building" color="255,230,230" fill="1" layer="-1.00" shape="1908.47,2195.44 1899.11,2195.09 1897.93,2223.81 1909.27,2224.27 1909.95,2207.82 1932.21,2208.71 1932.70,2196.40 1908.47,2195.44"/>
    <poly id="126096941" type="building" color="255,230,230" fill="1" layer="-1.00" shape="1885.02,2228.83 1892.82,2227.01 1889.86,2214.40 1880.36,2216.61 1882.03,2223.70 1876.18,2224.90 1878.19,2234.69 1885.90,2233.11 1885.02,2228.83"/>
    <poly id="126097303" type="building" color="255,230,230" fill="1" layer="-1.00" shape="1879.63,2265.79 1887.74,2264.00 1885.93,2255.82 1877.82,2257.61 1879.63,2265.79"/>
    <poly id="126097310" type="building" color="255,230,230" fill="1" layer="-1.00" shape="1859.36,2283.50 1872.35,2280.55 1870.70,2273.32 1869.25,2266.92 1863.80,2268.15 1865.27,2274.62 1857.69,2276.35 1858.17,2278.45 1855.84,2278.97 1856.93,2283.76 1859.30,2283.22 1859.36,2283.50"/>
    <poly id="126097314" type="building" color="255,230,230" fill="1" layer="-1.00" shape="1873.68,2260.34 1872.00,2252.57 1870.61,2252.87 1868.52,2253.32 1870.20,2261.09 1873.68,2260.34"/>
    <poly id="126097315" type="building" color="255,230,230" fill="1" layer="-1.00" shape="1869.38,2258.16 1868.14,2252.51 1866.33,2252.91 1864.87,2253.23 1866.12,2258.88 1869.38,2258.16"/>
    <poly id="126097553" type="building" color="255,230,230" fill="1" layer="-1.00" shape="1842.68,2277.21 1851.30,2275.44 1849.69,2267.70 1841.07,2269.48 1842.68,2277.21"/>
    <poly id="126097556" type="building" color="255,230,230" fill="1" layer="-1.00" shape="1819.60,2279.77 1828.76,2278.04 1829.21,2280.33 1835.49,2279.09 1834.13,2272.24 1831.62,2272.73 1828.67,2273.32 1827.66,2267.99 1812.24,2270.90 1813.99,2280.11 1809.41,2281.01 1810.45,2286.31 1820.49,2284.33 1819.60,2279.77"/>
    <poly id="126097622" type="building" color="255,230,230" fill="1" layer="-1.00" shape="1765.49,2277.46 1767.60,2287.66 1779.90,2285.12 1777.80,2274.92 1765.49,2277.46"/>
    <poly id="126097623" type="building" color="255,230,230" fill="1" layer="-1.00" shape="1750.15,2290.93 1762.19,2288.21 1760.02,2278.62 1748.72,2281.17 1748.11,2278.51 1746.68,2278.83 1745.31,2279.14 1746.69,2285.23 1748.75,2284.77 1750.15,2290.93"/>
    <poly id="126097624" type="building" color="255,230,230" fill="1" layer="-1.00" shape="1766.61,2243.43 1780.33,2240.92 1778.84,2232.78 1765.11,2235.29 1766.61,2243.43"/>
    <poly id="127055776" type="building" color="255,230,230" fill="1" layer="-1.00" shape="2234.90,3123.11 2235.20,3120.23 2234.31,3120.05 2234.43,3116.30 2248.51,3117.81 2248.81,3114.45 2252.98,3114.92 2252.26,3119.56 2249.69,3119.44 2248.79,3124.80 2234.90,3123.11"/>
    <poly id="127055780" type="building" color="255,230,230" fill="1" layer="-1.00" shape="2228.09,3181.75 2228.83,3176.46 2226.90,3176.19 2227.18,3174.35 2226.37,3174.26 2226.83,3171.22 2229.47,3171.74 2229.37,3172.62 2236.60,3173.47 2235.53,3179.32 2233.05,3178.86 2232.18,3182.54 2228.09,3181.75"/>
    <poly id="127055781" type="building" color="255,230,230" fill="1" layer="-1.00" shape="2236.35,3137.18 2237.07,3132.70 2238.19,3132.81 2238.23,3130.72 2236.39,3130.36 2236.85,3126.68 2245.52,3127.64 2244.71,3132.83 2242.06,3132.63 2241.87,3133.91 2242.84,3133.85 2242.04,3138.09 2236.35,3137.18"/>
    <poly id="127055824" type="building" color="255,230,230" fill="1" layer="-1.00" shape="2166.72,3022.86 2169.63,3014.63 2178.49,3018.05 2175.46,3026.16 2166.72,3022.86"/>
    <poly id="127055829" type="building" color="255,230,230" fill="1" layer="-1.00" shape="2094.08,2983.16 2100.21,2976.87 2106.02,2982.74 2099.75,2989.02 2094.08,2983.16"/>
    <poly id="127055832" type="building" color="255,230,230" fill="1" layer="-1.00" shape="2224.14,3136.34 2225.24,3128.41 2230.21,3129.05 2229.03,3136.98 2224.14,3136.34"/>
    <poly id="127055840" type="building" color="255,230,230" fill="1" layer="-1.00" shape="2108.76,2948.17 2111.66,2939.94 2120.53,2943.35 2117.50,2951.46 2108.76,2948.17"/>
    <poly id="127055842" type="building" color="255,230,230" fill="1" layer="-1.00" shape="2288.45,3193.80 2289.89,3185.07 2297.67,3186.01 2296.64,3194.67 2288.45,3193.80"/>
    <poly id="127055844" type="building" color="255,230,230" fill="1" layer="-1.00" shape="2216.74,3163.89 2217.36,3155.96 2224.66,3157.05 2224.04,3164.67 2216.74,3163.89"/>
    <poly id="127055847" type="building" color="255,230,230" fill="1" layer="-1.00" shape="2221.15,3174.00 2221.52,3171.12 2226.01,3171.84 2225.39,3174.97 2221.15,3174.00"/>