<?xml version="1.0" encoding="UTF-8"?>

<!-- generated on Tue Sep  5 15:39:38 2017 by SUMO duarouter Version 0.30.0
<?xml version="1.0" encoding="UTF-8"?>

<configuration xmlns:xsi="http://www.w3.org/2001/XMLSchema-instance" xsi:noNamespaceSchemaLocation="http://sumo.dlr.de/xsd/duarouterConfiguration.xsd">

    <input>
        <net-file value="aarhus.net.xml"/>
        <trip-files value="trips.trips.xml"/>
    </input>

    <output>
        <output-file value="aarhus.rou.xml"/>
    </output>

    <processing>
        <ignore-errors value="true"/>
    </processing>

    <time>
        <begin value="0"/>
        <end value="100.0"/>
    </time>

    <report>
        <no-warnings value="true"/>
        <no-step-log value="true"/>
    </report>

</configuration>
-->

<routes xmlns:xsi="http://www.w3.org/2001/XMLSchema-instance" xsi:noNamespaceSchemaLocation="http://sumo.dlr.de/xsd/routes_file.xsd">
    <vehicle id="0" depart="0.00">
        <route edges="153531786#0 153531786#1 153531786#2 153531786#2-AddedOffRampEdge 510624276#0 510624276#1 510624276#3 515306039 515306040#0 515306040#1 515306040#2 510624310#0 517466664 510624259 517466663 510624304 510624303 510624306 24721928#0 -41733278#0 22958996#10 22958996#11"/>
    </vehicle>
    <vehicle id="1" depart="1.00">
        <route edges="-26815232#2 -26815232#0 26815225#2 20037814#7 272706503#0 272706503#1 272706528#1 272706528#2 510624280#0 510624280#1 510624280#3 510624280#4 515306040#0 515306040#1 515306040#2 510624310#0 517466664 510624259 517466663 510624304 510624303 510624305"/>
    </vehicle>
    <vehicle id="2" depart="2.00">
        <route edges="37930626#2 -37930626#2 -37930626#1 -30785536#0 20037814#6 20037814#7 272706503#0 272706503#1 272706528#1 272706528#2 510624280#0 510624280#1 510624280#3 510624280#4 515306040#0 515306040#1 515306040#2 510624310#0 517466664 510624259 517466663 510624304 510624303 510624306 24721928#0 -41733278#0"/>
    </vehicle>
    <vehicle id="3" depart="3.00">
        <route edges="272706510#1 272706528#0 272706528#1 272706528#2 510624280#0 510624280#1 510624280#3 23254331#3 517466665#0 56323455#0 56323455#1 24736786 24736832#0 24736832#1 23205066#0 23205066#1 23205066#2 51841151#0 51841151#3 51841151#4 -51841151#4"/>
    </vehicle>
    <vehicle id="4" depart="4.00">
        <route edges="24736787#3 20037909#1 20037909#2 20037909#3 -26815262#2 26815262#0"/>
    </vehicle>
    <vehicle id="5" depart="5.00">
        <route edges="-26815232#0 26815225#2 20037814#7 272706503#0 272706503#1 272706528#1 272706528#2 510624280#0 510624280#1 510624280#3 23254331#3 517466665#0"/>
    </vehicle>
    <vehicle id="8" depart="8.00">
        <route edges="161469247#0 20037909#0 20037909#1 -26815253#1 26815253#0"/>
    </vehicle>
    <vehicle id="9" depart="9.00">
        <route edges="153531786#0 153531786#1 153531786#2 153531786#2-AddedOffRampEdge 510624276#0 510624276#1 510624276#3 515306039 515306040#0 515306040#1 515306040#2 510624310#0 517466664 510624259 517466663 510624304 510624303 510624306 24721928#0 24721928#2 24721928#3 24721928#4 24721928#5 24721928#6 24721928#7 24721928#8 24721928#9 24721928#10 24721928#11 24721928#12 -24721931#3 -24721931#2 -24721931#1 -24721931#0"/>
    </vehicle>
    <vehicle id="11" depart="11.00">
        <route edges="20037814#4 20037814#5 20037814#6 20037814#7 272706503#0 272706503#1 272706528#1 272706528#2 510624280#0 510624280#1 510624280#3 510624280#4 515306040#0 515306040#1 515306040#2 510624310#0 517466664 510624259 517466663 510624304 510624303 510624306 24721928#0 24721928#2 24721928#3 24721928#4 -30986575#4 -30986575#3 -30986575#2 -30986575#1 -30986575#0 -22958996#8"/>
    </vehicle>
    <vehicle id="12" depart="12.00">
        <route edges="20037814#2 20037814#3 -20037850#37 -20037850#34 -20037850#33 -20037850#31 -20037850#29 -20037850#28 -20037850#27 -20037850#25 -20037850#24 -20037850#23 -20037850#21 -20037850#20 -20037850#19 -20037909#5 -20037909#3 -20037909#2 -20037909#1 -20037909#0 161469247#1 161469247#2 161469247#3 161469247#4 56323455#2 56323455#3"/>
    </vehicle>
    <vehicle id="13" depart="13.00">
        <route edges="-51837591 51837584#1 51837584#2 51837584#3 -23205066#1 -23205066#0 24733665#0 24733665#1 24733665#2 24736828 24736787#0 24736787#1 24736787#3 20037909#1 -26815253#1 -20037814#0"/>
    </vehicle>
    <vehicle id="16" depart="16.00">
        <route edges="-20037814#2 26815262#0 -20037909#3 -20037909#2 -20037909#1 -20037909#0 161469247#1 161469247#2 161469247#3 161469247#4 24736786 24736832#0 24736832#1 23205066#0 23205066#1 23205066#2 23205066#3 51841131#0"/>
    </vehicle>
    <vehicle id="18" depart="18.00">
        <route edges="56323455#0 56323455#1 24736786 24736832#0 24736832#1 23205066#0 23205066#1 23205066#2 23205066#3"/>
    </vehicle>
    <vehicle id="19" depart="19.00">
        <route edges="-26815225#3 26815232#0 26815232#1 26815232#3 -20037814#4 -20037850#37 -20037850#34 -20037850#33 -20037850#31 -20037850#29 -20037850#28 -20037850#27 -20037850#25 -20037850#24 -20037850#23 -20037850#21 -20037850#20 -20037850#19 -20037909#5 -20037909#3 -20037909#2 -26815253#1"/>
    </vehicle>
    <vehicle id="20" depart="20.00">
        <route edges="-20037814#6 20037814#6 20037814#7 272706503#0 272706503#1 272706528#1 272706528#2 510624280#0 510624280#1 510624280#3 23254331#3 517466665#0 56323455#0 56323455#1 24736786 24736832#0 24736832#1 23205066#0 23205066#1 23205066#2 23205066#3 23205066#4 -23205066#4"/>
    </vehicle>
    <vehicle id="21" depart="21.00">
        <route edges="20037814#1 26815262#0 -20037909#3 -20037909#2 -20037909#1 -20037909#0 161469247#1 161469247#2 161469247#3 161469247#4 24736786 24736832#0 24736832#1 23205066#0 23205066#1 23205066#2 23205066#3 23205066#4"/>
    </vehicle>
    <vehicle id="24" depart="24.00">
        <route edges="51841137#1 -51841137#1 -51841137#0 -51841151#2 -23205066#2 -23205066#1 -23205066#0 24733665#0 24733665#1 24733665#2 153531786#2 153531786#2-AddedOffRampEdge 510624276#0 510624276#1 510624276#3 515306038 517466665#0 56323455#0"/>
    </vehicle>
    <vehicle id="25" depart="25.00">
        <route edges="-51841131#11 -51841131#8 -51841131#7 -51841151#6 -51841151#4 -51841151#3 -51841151#2 -23205066#2 -23205066#1 -23205066#0 24733665#0 24733665#1 24733665#2 24736828 24736787#0 24736787#1 24736787#3 20037909#1 -26815253#1 -20037814#0"/>
    </vehicle>
    <vehicle id="27" depart="27.00">
        <route edges="51837584#0 51837584#1 51837584#2 51837584#3 -23205066#1 -23205066#0 24733665#0 24733665#1 24733665#2 24736828 24736787#0 24736787#1 24736787#3 20037909#1 20037909#2 20037909#3 20037909#4 20037850#18 20037850#20 20037850#21 20037850#22 20037850#24 20037850#25 20037850#26 20037850#28 20037850#29 20037850#30 20037850#32 20037850#34 20037850#35 -37930627#2 -37930627#0"/>
    </vehicle>
    <vehicle id="28" depart="28.00">
        <route edges="51837584#1 51837584#2 51837584#3 -23205066#1 -23205066#0 24733665#0 24733665#1 24733665#2 153531786#2 153531786#2-AddedOffRampEdge 510624276#0 510624276#1 24430829#1 517466669#0 517466669#1 56323454#0 517466668"/>
    </vehicle>
    <vehicle id="29" depart="29.00">
        <route edges="26815225#2 20037814#7 272706503#0 272706503#1 272706528#1 272706528#2 510624280#0 510624280#1"/>
    </vehicle>
    <vehicle id="32" depart="32.00">
        <route edges="-26815253#1 20037814#1 20037814#2 20037814#3 20037814#4 -26815232#4 -26815232#2 -26815232#0 -26815225#1 26815225#1"/>
    </vehicle>
    <vehicle id="33" depart="33.00">
        <route edges="510624276#0 510624276#1 510624276#3 515306039 515306040#0 515306040#1 515306040#2 510624310#0 517466664 510624259 517466663 510624304 510624303 510624306 24721928#0 24721928#2 24721928#3 24721928#4 24721928#5 24721928#6 24721928#7 24721928#8 24721928#9 24721928#10 24721928#11 24721928#12 24721931#4 24721931#5 24721931#6 24721931#7 24721931#8 -22958996#5 8101187"/>
    </vehicle>
    <vehicle id="34" depart="34.00">
        <route edges="-41733278#5 -41733279#4 -41733279#2 -41733279#1 41733279#1"/>
    </vehicle>
    <vehicle id="35" depart="35.00">
        <route edges="26815176#5 26815176#6 24736787#1 24736787#3 -20037909#0 161469247#1 161469247#2 161469247#3 161469247#4 24736786 24736832#0 24736832#1 23205066#0 23205066#1 -51837584#3 -51837584#2 -51837584#1 51837584#1"/>
    </vehicle>
    <vehicle id="40" depart="40.00">
        <route edges="20037909#8 26815176#3 26815176#5 26815176#6 24736787#1 24736787#3 -20037909#0 161469247#1 161469247#2 161469247#3 161469247#4 56323455#2 56323455#3"/>
    </vehicle>
    <vehicle id="42" depart="42.00">
        <route edges="161226647#0 161226647#0-AddedOffRampEdge 510624277#0 510624277#1 510624277#3 510624277#4 515306045#0 515306045#1 515306042#0 515306042#1 24771986#1 24771986#2 510624274#4 515306043#0 515306043#1 515306038 517466665#0 56323455#0 56323455#1 24736786 24736832#0 24736832#1 23205066#0 23205066#1 23205066#2 23205066#3 51841131#0 51841131#2"/>
    </vehicle>
    <vehicle id="45" depart="45.00">
        <route edges="-41733278#0 41733278#0 24721928#2 24721928#3 24721928#4 24721928#5 24721928#6"/>
    </vehicle>
    <vehicle id="46" depart="46.00">
        <route edges="-26815262#2 26815262#0 -20037909#3 -20037909#2 -20037909#1 -20037909#0 161469247#1 161469247#2 161469247#3 52004188#0 52004188#1 -52004188#1"/>
    </vehicle>
    <vehicle id="47" depart="47.00">
        <route edges="-23205066#3 -23205066#2 -23205066#1 -23205066#0 24733665#0 24733665#1 24733665#2 153531786#2 153531786#2-AddedOffRampEdge 510624276#0 510624276#1 510624276#3 515306039 515306040#0 515306040#1 515306040#2 510624310#0 517466664 510624259 517466663 510624304 510624303 510624306 24721928#0 24721928#2 24721928#3 24721928#4 24721928#5 24721928#6 24721928#7 24721928#8 24721928#9 24721928#10 24721928#11 24721928#12 -24721931#3 24721936#0 24721936#1 24721936#2 24721936#3 24721936#4"/>
    </vehicle>
    <vehicle id="50" depart="50.00">
        <route edges="-20037814#2 20037814#2 20037814#3 20037814#4 20037814#5 20037814#6 20037814#7 272706503#0 272706503#1 272706528#1 272706528#2 510624280#0 510624280#1 510624280#3 510624280#4 515306040#0 515306040#1 515306040#2 510624310#0 517466664 510624259 517466663 510624304 510624303 510624306 24721928#0 24721928#2 24721928#3 24721928#4 24721928#5 24721928#6 24721928#7 24721928#8 34876452#0 34876452#1 34876452#2"/>
    </vehicle>
    <vehicle id="53" depart="53.00">
        <route edges="-20037909#8 -20037909#7 20037850#18 20037850#20 20037850#21 20037850#22 20037850#24 20037850#25 20037850#26 20037850#28 20037850#29 20037850#30 20037850#32 20037850#34 20037850#35 -20037814#3 -20037814#2 26815262#0"/>
    </vehicle>
    <vehicle id="54" depart="54.00">
        <route edges="-37930629#1 -37930626#3 -37930626#2 -37930626#1 -30785536#0 20037814#6 20037814#7 272706503#0 272706503#1 272706528#1 272706528#2 510624280#0 510624280#1 510624280#3 510624280#4 515306040#0 515306040#1 515306040#2 510624310#0 517466664 510624259 517466663 510624304 510624303 510624306 24721928#0 24721928#2 24721928#3 24721928#4 -30986575#4 -30986575#3 -30986575#2 -30986575#1 -30986575#0"/>
    </vehicle>
    <vehicle id="55" depart="55.00">
        <route edges="26815176#1 26815176#2 26815176#3 26815176#5 26815176#6 24736787#1 24736787#3 -20037909#0 161469247#1 161469247#2 52004187#0 52004187#1"/>
    </vehicle>
    <vehicle id="56" depart="56.00">
        <route edges="161469247#3 161469247#4 24736786 153531786#1 24736828 24736787#0 24736787#1 24736787#3 20037909#1 20037909#2 20037909#3 20037909#4 20037850#18 -20037850#19"/>
    </vehicle>
    <vehicle id="58" depart="58.00">
        <route edges="-26815232#2 -26815232#0 -26815225#1 -26815225#0 26815176#2 26815176#3 26815176#5 26815176#6 24736787#1 24736787#3 -20037909#0 161469247#1 161469247#2 161469247#3 161469247#4 56323455#2 56323455#3"/>
    </vehicle>
    <vehicle id="59" depart="59.00">
        <route edges="51841131#2 -51841131#2 -51841131#1 23205066#4"/>
    </vehicle>
    <vehicle id="61" depart="61.00">
        <route edges="-37930626#2 37930626#2 37930626#3 37930626#4 37930627#1 -20037850#37 -20037850#34 -20037850#33 -20037850#31 -20037850#29 -20037850#28 -20037850#27 -20037850#25 -20037850#24 -20037850#23 -20037850#21 -20037850#20 -20037850#19 -20037909#5 -20037909#3 -20037909#2 -20037909#1 -20037909#0 161469247#1 161469247#2 161469247#3 161469247#4 24736786 24736832#0 24736832#1 23205066#0 23205066#1 -51837584#3 -51837584#2 -51837584#1 51837591"/>
    </vehicle>
    <vehicle id="62" depart="62.00">
        <route edges="-26815225#0 26815225#0 26815225#1 26815225#2 20037814#7 272706503#0 272706503#1 272706528#1 272706528#2 510624280#0 510624280#1 510624280#3 510624280#4 515306040#0 515306040#1 515306040#2 510624310#0 517466664 510624259 517466663 510624304 510624303 510624306 24721928#0 24721928#2 24721928#3 24721928#4 24721928#5 24721928#6 24721928#7 24721928#8 24721928#9 24721928#10 24721928#11 24721928#12 -24721931#3 24721936#0 24721936#1 24721936#2 24721936#3 24721936#4 24721936#5 24721936#6 22958996#2 -32961890"/>
    </vehicle>
    <vehicle id="64" depart="64.00">
        <route edges="51841131#8 -51841131#8 -51841131#7 -51841151#6 -51841151#4 -51841151#3 -51841151#2 -23205066#2 -23205066#1 -23205066#0 24733665#0 24733665#1 24733665#2 24736828 24736787#0 24736787#1 24736787#3 20037909#1 20037909#2 20037909#3 20037909#4 20037850#18 20037850#20 20037850#21 20037850#22 20037850#24 20037850#25 20037850#26 20037850#28 20037850#29 20037850#30 20037850#32 20037850#34 20037850#35 -37930627#2 -37930626#4 -37930626#3 -37930626#2"/>
    </vehicle>
    <vehicle id="65" depart="65.00">
        <route edges="161469247#2 161469247#3 161469247#4 24736786 24736832#0 24736832#1 23205066#0 23205066#1 23205066#2 -23205066#2"/>
    </vehicle>
    <vehicle id="68" depart="68.00">
        <route edges="56323455#0 56323455#1 24736786 24736832#0 24736832#1 23205066#0 23205066#1 23205066#2 51841151#0 51841137#0 51841137#1 51841137#2"/>
    </vehicle>
    <vehicle id="69" depart="69.00">
        <route edges="20037909#1 -20037909#1 -20037909#0 161469247#1 161469247#2 161469247#3 161469247#4 24736786 153531786#1 153531786#2 153531786#2-AddedOffRampEdge 510624276#0 510624276#1 510624276#3 515306039 515306040#0 515306040#1 515306040#2 510624310#0 517466664 510624259 517466663 510624304 510624303 510624306 24721928#0 24721928#2 24721928#3 24721928#4 24721928#5 24721928#6 24721928#7 24721928#8 24721928#9 24721928#10 24721928#11 24721928#12 -24721931#3 -24721931#2"/>
    </vehicle>
    <vehicle id="73" depart="73.00">
        <route edges="26815232#1 26815232#3 20037814#5 20037814#6 20037814#7 272706503#0 272706503#1 272706528#1 272706528#2 510624280#0 510624280#1 510624280#3 510624280#4 515306040#0 515306040#1 515306040#2 510624310#0 517466664 510624259 517466663 510624304 510624303 510624306 24721928#0 24721928#2 24721928#3 24721928#4 24721928#5 24721928#6 24721928#7 24721928#8 24721928#9 24721928#10 24721928#11 24721928#12 24721931#4 24721931#5 24721931#6 24721931#7 24721931#8 -22958996#5 8101187"/>
    </vehicle>
    <vehicle id="74" depart="74.00">
        <route edges="26815176#2 26815176#3 26815176#5 26815176#6 24736787#1 24736787#3 -20037909#0 161469247#1 161469247#2 161469247#3 161469247#4 24736786 24736832#0 24736832#1 23205066#0 23205066#1 23205066#2 51841151#0 -51841151#2"/>
    </vehicle>
    <vehicle id="75" depart="75.00">
        <route edges="161469247#4 24736786 153531786#1 153531786#2 153531786#2-AddedOffRampEdge 510624276#0 510624276#1 510624276#3 515306038 510624269 26815176#0 26815176#1 26815225#0 26815225#1 26815232#0 26815232#1"/>
    </vehicle>
    <vehicle id="76" depart="76.00">
        <route edges="44829596#1 44829596#2 44829596#3 44829596#4 517466671#0 517466671#1 517466671#3 153531784#0 510624277#4 515306045#0 515306045#1 515306042#0 515306042#1 24771986#1 24771986#2 510624274#4 515306043#0 515306043#1 515306038 517466665#0 56323455#0 24736787#0 24736787#1 24736787#3 20037909#1 20037909#2 20037909#3"/>
    </vehicle>
    <vehicle id="79" depart="79.00">
        <route edges="56323455#0 -24736828 153531786#2 153531786#2-AddedOffRampEdge 510624276#0 510624276#1 24430829#1 517466669#0 517466669#1 56323454#0 517466668"/>
    </vehicle>
    <vehicle id="80" depart="80.00">
        <route edges="-20037814#5 -20037814#4 -20037850#37 -20037850#34 -20037850#33 -20037850#31 -20037850#29 -20037850#28 -20037850#27 -20037850#25 -20037850#24 -20037850#23 -20037850#21 -20037850#20 -20037850#19 -20037909#5 -20037909#3 -20037909#2 -20037909#1 -20037909#0 161469247#1 161469247#2 161469247#3 161469247#4 24736786 24736832#0 24736832#1 23205066#0 23205066#1 23205066#2 23205066#3 23205066#4"/>
    </vehicle>
    <vehicle id="82" depart="82.00">
        <route edges="26815232#3 -20037814#4 -20037850#37 -20037850#34 -20037850#33 -20037850#31 -20037850#29 -20037850#28 -20037850#27 -20037850#25 -20037850#24 -20037850#23 -20037850#21 -20037850#20 -20037850#19 -20037909#5 -20037909#3 -20037909#2 -20037909#1 -20037909#0 161469247#1 161469247#2 161469247#3 161469247#4 56323455#2 41987079#0"/>
    </vehicle>
    <vehicle id="83" depart="83.00">
        <route edges="51837584#0 51837584#1 51837584#2 51837584#3 -23205066#1 -23205066#0 24733665#0 24733665#1 24733665#2 24736828 24736787#0 24736787#1 24736787#3 20037909#1 20037909#2 20037909#3 20037909#4 20037850#18 20037850#20 20037850#21 20037850#22 20037850#24 20037850#25 20037850#26 20037850#28 20037850#29 20037850#30 20037850#32 20037850#34 20037850#35 20037814#4 20037814#5"/>
    </vehicle>
    <vehicle id="84" depart="84.00">
        <route edges="161469247#4 24736786 153531786#1 153531786#2 153531786#2-AddedOffRampEdge 510624276#0 510624276#1 510624276#3 515306039 515306040#0 515306040#1 515306040#2 510624310#0 517466664 510624259 517466663 510624304 510624303 510624306 24721928#0 -41733278#0 22958996#10"/>
    </vehicle>
    <vehicle id="87" depart="87.00">
        <route edges="153531786#0 153531786#1 153531786#2 153531786#2-AddedOffRampEdge 510624276#0 510624276#1 510624276#3 515306039 515306040#0 515306040#1 515306040#2 510624310#0 517466664 510624259 517466663 510624304 510624303 510624306 24721928#0 24721928#2 24721928#3 24721928#4 -30986575#4 -30986575#3 -30986575#2"/>
    </vehicle>
    <vehicle id="88" depart="88.00">
        <route edges="-20037909#1 -20037909#0 161469247#1 161469247#2 161469247#3 161469247#4 24736786 24736832#0 24736832#1 23205066#0 23205066#1 23205066#2 23205066#3 51841131#0 51841131#2"/>
    </vehicle>
    <vehicle id="90" depart="90.00">
        <route edges="517466665#0 56323455#0 56323455#1 24736786 24736832#0 24736832#1 23205066#0 23205066#1 23205066#2 51841151#0 51841151#3 51841151#4 51841151#5 -51841131#4 51841131#4"/>
    </vehicle>
    <vehicle id="91" depart="91.00">
        <route edges="161226647#1 510624266 510624267#0 510624267#2 23254331#0 23254331#1 23254331#2 23254331#3 517466665#0 56323455#0"/>
    </vehicle>
    <vehicle id="94" depart="94.00">
        <route edges="20037850#13 -20037909#5 -20037909#3 -20037909#2 -20037909#1 -20037909#0 161469247#1 161469247#2 161469247#3 161469247#4 24736786 153531786#1 153531786#2 153531786#2-AddedOffRampEdge 510624276#0 510624276#1 510624276#3 515306039 515306040#0 515306040#1 515306040#2 510624310#0 517466664 510624259 517466663 510624304 510624303 510624306 24721928#0 24721928#2 24721928#3 24721928#4 24721928#5 24721928#6 24721928#7 24721928#8 24721928#9 24721928#10 24721928#11 24721928#12 -24721931#3 24721936#0 24721936#1 24721936#2 24721936#3 24721936#4 24721936#5 24721936#6 22958996#2 -32961890"/>
    </vehicle>
    <vehicle id="95" depart="95.00">
        <route edges="23205066#4 -23205066#4 51841131#0 51841131#2 51841131#3 51841131#4 51841131#5 -51841131#7"/>
    </vehicle>
    <vehicle id="98" depart="98.00">
        <route edges="51837584#0 51837584#1 51837584#2 51837584#3 -23205066#1 -23205066#0 24733665#0 24733665#1 24733665#2 153531786#2 153531786#2-AddedOffRampEdge 510624276#0 510624276#1 510624276#3 515306038 510624269 26815176#0 26815176#1 26815176#2 26815176#3"/>
    </vehicle>
    <vehicle id="99" depart="99.00">
        <route edges="153531786#0 153531786#1 153531786#2 153531786#2-AddedOffRampEdge 510624276#0 510624276#1 510624276#3 515306039 515306040#0 515306040#1 515306040#2 510624310#0 517466664 510624259 517466663 510624304 510624303 510624306 24721928#0 24721928#2 24721928#3 24721928#4 24721928#5 24721928#6 24721928#7 24721928#8 24721928#9 24721928#10 24721928#11 24721928#12 24721931#4 24721931#5"/>
    </vehicle>
</routes>
