<?xml version="1.0" encoding="UTF-8"?>

<!-- generated on Wed Sep 20 10:54:27 2017 by Netedit Version 0.30.0
<?xml version="1.0" encoding="UTF-8"?>

<configuration xmlns:xsi="http://www.w3.org/2001/XMLSchema-instance" xsi:noNamespaceSchemaLocation="http://sumo.dlr.de/xsd/netconvertConfiguration.xsd">

    <input>
        <sumo-net-file value="hasle_randers.net.xml"/>
    </input>

    <output>
        <output-file value="hasle_randers.net.xml"/>
    </output>

    <processing>
        <no-turnarounds value="true"/>
        <offset.disable-normalization value="true"/>
        <lefthand value="false"/>
        <junctions.corner-detail value="0"/>
        <rectangular-lane-cut value="false"/>
    </processing>

</configuration>
-->

<net version="0.27" xmlns:xsi="http://www.w3.org/2001/XMLSchema-instance" xsi:noNamespaceSchemaLocation="http://sumo.dlr.de/xsd/net_file.xsd">

    <location netOffset="0.00,0.00" convBoundary="-1100.00,200.00,-500.00,1000.00" origBoundary="-10000000000.00,-10000000000.00,10000000000.00,10000000000.00" projParameter="!"/>

    <edge id=":gneJ5_0" function="internal">
        <lane id=":gneJ5_0_0" index="0" speed="13.89" length="4.80" shape="-805.30,356.25 -811.90,353.19"/>
        <lane id=":gneJ5_0_1" index="1" speed="13.89" length="4.80" shape="-805.30,356.25 -808.60,353.21"/>
        <lane id=":gneJ5_0_2" index="2" speed="13.89" length="4.80" shape="-802.00,356.25 -805.30,353.23"/>
        <lane id=":gneJ5_0_3" index="3" speed="13.89" length="4.80" shape="-802.00,356.25 -802.00,353.25"/>
    </edge>
    <edge id=":gneJ5_4" function="internal">
        <lane id=":gneJ5_4_0" index="0" speed="13.89" length="2.96" shape="-795.40,353.29 -795.40,356.24"/>
        <lane id=":gneJ5_4_1" index="1" speed="13.89" length="2.96" shape="-798.70,353.27 -798.70,356.24"/>
    </edge>
    <edge id=":gneJ8_0" function="internal">
        <lane id=":gneJ8_0_0" index="0" speed="13.89" length="10.96" shape="-785.32,291.14 -789.57,291.34 -792.61,291.94 -794.43,292.95 -795.05,294.35"/>
    </edge>
    <edge id=":gneJ8_1" function="internal">
        <lane id=":gneJ8_1_0" index="0" speed="13.89" length="29.32" shape="-785.32,291.14 -814.64,291.14"/>
    </edge>
    <edge id=":gneJ8_2" function="internal">
        <lane id=":gneJ8_2_0" index="0" speed="13.89" length="22.06" shape="-785.32,291.14 -793.90,290.74 -800.02,289.54 -803.70,287.54 -804.92,284.74"/>
    </edge>
    <edge id=":gneJ8_3" function="internal">
        <lane id=":gneJ8_3_0" index="0" speed="13.89" length="5.01" shape="-788.42,284.74 -788.23,286.09 -787.65,287.07 -786.68,287.65 -785.32,287.84"/>
    </edge>
    <edge id=":gneJ8_4" function="internal">
        <lane id=":gneJ8_4_0" index="0" speed="13.89" length="10.33" shape="-791.72,284.74 -792.24,287.67 -793.37,289.54 -794.52,291.42 -795.05,294.35"/>
        <lane id=":gneJ8_4_1" index="1" speed="13.89" length="10.33" shape="-795.02,284.74 -795.54,287.66 -796.67,289.53 -797.82,291.40 -798.35,294.33"/>
    </edge>
    <edge id=":gneJ8_6" function="internal">
        <lane id=":gneJ8_6_0" index="0" speed="13.89" length="4.67" shape="-798.32,284.74 -799.34,287.54 -800.76,288.47"/>
    </edge>
    <edge id=":gneJ8_14" function="internal">
        <lane id=":gneJ8_14_0" index="0" speed="13.89" length="14.35" shape="-800.76,288.47 -802.40,289.54 -807.50,290.74 -814.64,291.14"/>
    </edge>
    <edge id=":gneJ8_7" function="internal">
        <lane id=":gneJ8_7_0" index="0" speed="13.89" length="10.90" shape="-814.64,287.84 -810.39,287.65 -807.35,287.07 -805.53,286.10 -804.92,284.74"/>
    </edge>
    <edge id=":gneJ8_8" function="internal">
        <lane id=":gneJ8_8_0" index="0" speed="13.89" length="29.32" shape="-814.64,287.84 -785.32,287.84"/>
    </edge>
    <edge id=":gneJ8_9" function="internal">
        <lane id=":gneJ8_9_0" index="0" speed="13.89" length="22.13" shape="-814.64,287.84 -806.05,288.25 -799.93,289.47 -796.26,291.50 -795.05,294.35"/>
    </edge>
    <edge id=":gneJ8_10" function="internal">
        <lane id=":gneJ8_10_0" index="0" speed="13.89" length="5.01" shape="-811.55,294.25 -811.73,292.89 -812.31,291.92 -813.28,291.34 -814.64,291.14"/>
    </edge>
    <edge id=":gneJ8_11" function="internal">
        <lane id=":gneJ8_11_0" index="0" speed="13.89" length="10.28" shape="-808.25,294.27 -807.72,291.36 -806.57,289.51 -805.44,287.65 -804.92,284.74"/>
        <lane id=":gneJ8_11_1" index="1" speed="13.89" length="10.28" shape="-804.95,294.29 -804.42,291.38 -803.27,289.52 -802.14,287.65 -801.62,284.74"/>
    </edge>
    <edge id=":gneJ8_13" function="internal">
        <lane id=":gneJ8_13_0" index="0" speed="13.89" length="4.77" shape="-801.65,294.31 -800.61,291.48 -799.15,290.51"/>
    </edge>
    <edge id=":gneJ8_15" function="internal">
        <lane id=":gneJ8_15_0" index="0" speed="13.89" length="14.29" shape="-799.15,290.51 -797.55,289.46 -792.45,288.25 -785.32,287.84"/>
    </edge>
    <edge id=":hr_junction_0" function="internal">
        <lane id=":hr_junction_0_0" index="0" speed="13.89" length="16.50" shape="-814.85,817.95 -815.04,812.26 -815.62,808.20 -816.59,805.76 -817.95,804.95"/>
        <lane id=":hr_junction_0_1" index="1" speed="13.89" length="16.50" shape="-811.55,817.95 -811.95,810.82 -813.15,805.73 -815.15,802.67 -817.95,801.65"/>
    </edge>
    <edge id=":hr_junction_2" function="internal">
        <lane id=":hr_junction_2_0" index="0" speed="13.89" length="36.08" shape="-808.25,817.95 -807.73,806.14 -806.60,796.99 -805.47,789.34 -804.95,782.05"/>
        <lane id=":hr_junction_2_1" index="1" speed="13.89" length="36.08" shape="-804.95,817.95 -804.43,806.14 -803.30,796.99 -802.17,789.34 -801.65,782.05"/>
    </edge>
    <edge id=":hr_junction_4" function="internal">
        <lane id=":hr_junction_4_0" index="0" speed="13.89" length="13.58" shape="-801.65,817.95 -800.63,807.93 -798.65,803.29"/>
        <lane id=":hr_junction_4_1" index="1" speed="13.89" length="13.58" shape="-801.65,817.95 -800.63,809.38 -799.11,806.34"/>
    </edge>
    <edge id=":hr_junction_21" function="internal">
        <lane id=":hr_junction_21_0" index="0" speed="13.89" length="16.67" shape="-798.65,803.29 -797.57,800.78 -792.48,796.48 -785.35,795.05"/>
    </edge>
    <edge id=":hr_junction_22" function="internal">
        <lane id=":hr_junction_22_0" index="0" speed="13.89" length="16.96" shape="-799.11,806.34 -797.57,803.25 -792.48,799.58 -785.35,798.35"/>
    </edge>
    <edge id=":hr_junction_6" function="internal">
        <lane id=":hr_junction_6_0" index="0" speed="13.89" length="7.85" shape="-785.35,814.85 -788.15,815.04 -790.15,815.62 -791.35,816.59 -791.75,817.95"/>
    </edge>
    <edge id=":hr_junction_7" function="internal">
        <lane id=":hr_junction_7_0" index="0" speed="13.89" length="33.40" shape="-785.35,811.55 -796.05,810.52 -804.14,808.25 -810.98,805.98 -817.95,804.95"/>
        <lane id=":hr_junction_7_1" index="1" speed="13.89" length="33.40" shape="-785.35,808.25 -796.05,807.22 -804.14,804.95 -810.98,802.68 -817.95,801.65"/>
    </edge>
    <edge id=":hr_junction_9" function="internal">
        <lane id=":hr_junction_9_0" index="0" speed="13.89" length="15.85" shape="-785.35,804.95 -793.93,803.52 -800.05,799.23 -801.71,796.00"/>
        <lane id=":hr_junction_9_1" index="1" speed="13.89" length="15.85" shape="-785.35,801.65 -792.48,800.42 -796.26,797.70"/>
    </edge>
    <edge id=":hr_junction_23" function="internal">
        <lane id=":hr_junction_23_0" index="0" speed="13.89" length="14.51" shape="-801.71,796.00 -803.73,792.07 -804.95,782.05"/>
    </edge>
    <edge id=":hr_junction_24" function="internal">
        <lane id=":hr_junction_24_0" index="0" speed="13.89" length="17.10" shape="-796.26,797.70 -797.58,796.75 -800.63,790.62 -801.65,782.05"/>
    </edge>
    <edge id=":hr_junction_11" function="internal">
        <lane id=":hr_junction_11_0" index="0" speed="13.89" length="14.00" shape="-788.45,782.05 -788.26,787.74 -787.68,791.80 -786.71,794.24 -785.35,795.05"/>
    </edge>
    <edge id=":hr_junction_12" function="internal">
        <lane id=":hr_junction_12_0" index="0" speed="13.89" length="36.09" shape="-791.75,782.05 -792.27,793.15 -793.40,801.13 -794.53,808.55 -795.05,817.95"/>
        <lane id=":hr_junction_12_1" index="1" speed="13.89" length="36.09" shape="-795.05,782.05 -795.57,793.15 -796.70,801.13 -797.83,808.55 -798.35,817.95"/>
    </edge>
    <edge id=":hr_junction_14" function="internal">
        <lane id=":hr_junction_14_0" index="0" speed="13.89" length="13.00" shape="-798.35,782.05 -799.58,792.07 -801.51,795.84"/>
        <lane id=":hr_junction_14_1" index="1" speed="13.89" length="13.00" shape="-798.35,782.05 -799.58,790.62 -801.12,793.20"/>
    </edge>
    <edge id=":hr_junction_25" function="internal">
        <lane id=":hr_junction_25_0" index="0" speed="13.89" length="19.98" shape="-801.51,795.84 -803.25,799.22 -809.38,803.52 -817.95,804.95"/>
    </edge>
    <edge id=":hr_junction_26" function="internal">
        <lane id=":hr_junction_26_0" index="0" speed="13.89" length="19.94" shape="-801.12,793.20 -803.25,796.75 -809.38,800.42 -817.95,801.65"/>
    </edge>
    <edge id=":hr_junction_16" function="internal">
        <lane id=":hr_junction_16_0" index="0" speed="13.89" length="14.00" shape="-817.95,785.15 -812.26,784.96 -808.20,784.38 -805.76,783.41 -804.95,782.05"/>
    </edge>
    <edge id=":hr_junction_17" function="internal">
        <lane id=":hr_junction_17_0" index="0" speed="13.89" length="33.40" shape="-817.95,788.45 -807.25,789.48 -799.16,791.75 -792.32,794.02 -785.35,795.05"/>
        <lane id=":hr_junction_17_1" index="1" speed="13.89" length="33.40" shape="-817.95,791.75 -807.25,792.78 -799.16,795.05 -792.32,797.32 -785.35,798.35"/>
    </edge>
    <edge id=":hr_junction_19" function="internal">
        <lane id=":hr_junction_19_0" index="0" speed="13.89" length="19.76" shape="-817.95,795.05 -807.93,796.48 -800.78,800.77 -798.28,804.93"/>
        <lane id=":hr_junction_19_1" index="1" speed="13.89" length="19.76" shape="-817.95,798.35 -809.38,799.58 -803.25,803.25 -803.04,803.60"/>
    </edge>
    <edge id=":hr_junction_27" function="internal">
        <lane id=":hr_junction_27_0" index="0" speed="13.89" length="13.62" shape="-798.28,804.93 -796.48,807.93 -795.05,817.95"/>
    </edge>
    <edge id=":hr_junction_28" function="internal">
        <lane id=":hr_junction_28_0" index="0" speed="13.89" length="15.40" shape="-803.04,803.60 -799.58,809.38 -798.35,817.95"/>
    </edge>
    <edge id=":hr_south_0" function="internal">
        <lane id=":hr_south_0_0" index="0" speed="13.89" length="2.99" shape="-804.95,701.50 -804.95,698.51"/>
        <lane id=":hr_south_0_1" index="1" speed="13.89" length="2.99" shape="-801.65,701.50 -801.65,698.50"/>
    </edge>
    <edge id=":hr_south_2" function="internal">
        <lane id=":hr_south_2_0" index="0" speed="13.89" length="4.79" shape="-795.05,698.50 -788.45,701.50"/>
        <lane id=":hr_south_2_1" index="1" speed="13.89" length="4.79" shape="-795.05,698.50 -791.75,701.50"/>
        <lane id=":hr_south_2_2" index="2" speed="13.89" length="4.79" shape="-798.35,698.50 -795.05,701.50"/>
        <lane id=":hr_south_2_3" index="3" speed="13.89" length="4.79" shape="-798.35,698.50 -798.35,701.50"/>
    </edge>

    <edge id="-gneE3" from="gneJ5" to="hr_south" priority="1">
        <lane id="-gneE3_0" index="0" speed="13.89" length="342.26" shape="-795.40,356.24 -795.05,698.50"/>
        <lane id="-gneE3_1" index="1" speed="13.89" length="342.26" shape="-798.70,356.24 -798.35,698.50"/>
    </edge>
    <edge id="-gneE5" from="gneJ8" to="gneJ5" priority="1">
        <lane id="-gneE5_0" index="0" speed="13.89" length="58.94" shape="-795.05,294.35 -795.40,353.29"/>
        <lane id="-gneE5_1" index="1" speed="13.89" length="58.94" shape="-798.35,294.33 -798.70,353.27"/>
    </edge>
    <edge id="-gneE6" from="gneJ9" to="gneJ8" priority="1">
        <lane id="-gneE6_0" index="0" speed="13.89" length="85.22" shape="-899.86,287.86 -814.64,287.84"/>
    </edge>
    <edge id="-gneE7" from="gneJ10" to="gneJ8" priority="1">
        <lane id="-gneE7_0" index="0" speed="13.89" length="85.06" shape="-700.26,291.16 -785.32,291.14"/>
    </edge>
    <edge id="-gneE8" from="gneJ11" to="gneJ8" priority="1">
        <lane id="-gneE8_0" index="0" speed="13.89" length="84.74" shape="-788.45,200.00 -788.42,284.74"/>
        <lane id="-gneE8_1" index="1" speed="13.89" length="84.74" shape="-791.75,200.00 -791.72,284.74"/>
        <lane id="-gneE8_2" index="2" speed="13.89" length="84.74" shape="-795.05,200.00 -795.02,284.74"/>
        <lane id="-gneE8_3" index="3" speed="13.89" length="84.74" shape="-798.35,200.00 -798.32,284.74"/>
    </edge>
    <edge id="gneE3" from="hr_south" to="gneJ5" priority="1">
        <lane id="gneE3_0" index="0" speed="13.89" length="342.26" shape="-804.95,698.51 -805.30,356.25"/>
        <lane id="gneE3_1" index="1" speed="13.89" length="342.26" shape="-801.65,698.50 -802.00,356.25"/>
    </edge>
    <edge id="gneE5" from="gneJ5" to="gneJ8" priority="1">
        <lane id="gneE5_0" index="0" speed="13.89" length="58.94" shape="-811.90,353.19 -811.55,294.25"/>
        <lane id="gneE5_1" index="1" speed="13.89" length="58.94" shape="-808.60,353.21 -808.25,294.27"/>
        <lane id="gneE5_2" index="2" speed="13.89" length="58.94" shape="-805.30,353.23 -804.95,294.29"/>
        <lane id="gneE5_3" index="3" speed="13.89" length="58.94" shape="-802.00,353.25 -801.65,294.31"/>
    </edge>
    <edge id="gneE6" from="gneJ8" to="gneJ9" priority="1">
        <lane id="gneE6_0" index="0" speed="13.89" length="85.22" shape="-814.64,291.14 -899.86,291.16"/>
    </edge>
    <edge id="gneE7" from="gneJ8" to="gneJ10" priority="1">
        <lane id="gneE7_0" index="0" speed="13.89" length="85.06" shape="-785.32,287.84 -700.26,287.86"/>
    </edge>
    <edge id="gneE8" from="gneJ8" to="gneJ11" priority="1">
        <lane id="gneE8_0" index="0" speed="13.89" length="84.74" shape="-804.92,284.74 -804.95,200.00"/>
        <lane id="gneE8_1" index="1" speed="13.89" length="84.74" shape="-801.62,284.74 -801.65,200.00"/>
    </edge>
    <edge id="hr_east_in" from="hr_east" to="hr_junction" priority="1">
        <lane id="hr_east_in_0" index="0" speed="13.89" length="285.35" shape="-500.00,814.85 -785.35,814.85"/>
        <lane id="hr_east_in_1" index="1" speed="13.89" length="285.35" shape="-500.00,811.55 -785.35,811.55"/>
        <lane id="hr_east_in_2" index="2" speed="13.89" length="285.35" shape="-500.00,808.25 -785.35,808.25"/>
        <lane id="hr_east_in_3" index="3" speed="13.89" length="285.35" shape="-500.00,804.95 -785.35,804.95"/>
        <lane id="hr_east_in_4" index="4" speed="13.89" length="285.35" shape="-500.00,801.65 -785.35,801.65"/>
    </edge>
    <edge id="hr_east_out" from="hr_junction" to="hr_east" priority="1">
        <lane id="hr_east_out_0" index="0" speed="13.89" length="285.35" shape="-785.35,795.05 -500.00,795.05"/>
        <lane id="hr_east_out_1" index="1" speed="13.89" length="285.35" shape="-785.35,798.35 -500.00,798.35"/>
    </edge>
    <edge id="hr_north_in" from="hr_north" to="hr_junction" priority="1">
        <lane id="hr_north_in_0" index="0" speed="13.89" length="182.05" shape="-814.85,1000.00 -814.85,817.95"/>
        <lane id="hr_north_in_1" index="1" speed="13.89" length="182.05" shape="-811.55,1000.00 -811.55,817.95"/>
        <lane id="hr_north_in_2" index="2" speed="13.89" length="182.05" shape="-808.25,1000.00 -808.25,817.95"/>
        <lane id="hr_north_in_3" index="3" speed="13.89" length="182.05" shape="-804.95,1000.00 -804.95,817.95"/>
        <lane id="hr_north_in_4" index="4" speed="13.89" length="182.05" shape="-801.65,1000.00 -801.65,817.95"/>
    </edge>
    <edge id="hr_north_out" from="hr_junction" to="hr_north" priority="1">
        <lane id="hr_north_out_0" index="0" speed="13.89" length="182.05" shape="-791.75,817.95 -791.75,1000.00"/>
        <lane id="hr_north_out_1" index="1" speed="13.89" length="182.05" shape="-795.05,817.95 -795.05,1000.00"/>
        <lane id="hr_north_out_2" index="2" speed="13.89" length="182.05" shape="-798.35,817.95 -798.35,1000.00"/>
    </edge>
    <edge id="hr_south_in" from="hr_south" to="hr_junction" priority="1">
        <lane id="hr_south_in_0" index="0" speed="13.89" length="80.55" shape="-788.45,701.50 -788.45,782.05"/>
        <lane id="hr_south_in_1" index="1" speed="13.89" length="80.55" shape="-791.75,701.50 -791.75,782.05"/>
        <lane id="hr_south_in_2" index="2" speed="13.89" length="80.55" shape="-795.05,701.50 -795.05,782.05"/>
        <lane id="hr_south_in_3" index="3" speed="13.89" length="80.55" shape="-798.35,701.50 -798.35,782.05"/>
    </edge>
    <edge id="hr_south_out" from="hr_junction" to="hr_south" priority="1">
        <lane id="hr_south_out_0" index="0" speed="13.89" length="80.55" shape="-804.95,782.05 -804.95,701.50"/>
        <lane id="hr_south_out_1" index="1" speed="13.89" length="80.55" shape="-801.65,782.05 -801.65,701.50"/>
    </edge>
    <edge id="hr_west_in" from="hr_west" to="hr_junction" priority="1">
        <lane id="hr_west_in_0" index="0" speed="13.89" length="282.05" shape="-1100.00,785.15 -817.95,785.15"/>
        <lane id="hr_west_in_1" index="1" speed="13.89" length="282.05" shape="-1100.00,788.45 -817.95,788.45"/>
        <lane id="hr_west_in_2" index="2" speed="13.89" length="282.05" shape="-1100.00,791.75 -817.95,791.75"/>
        <lane id="hr_west_in_3" index="3" speed="13.89" length="282.05" shape="-1100.00,795.05 -817.95,795.05"/>
        <lane id="hr_west_in_4" index="4" speed="13.89" length="282.05" shape="-1100.00,798.35 -817.95,798.35"/>
    </edge>
    <edge id="hr_west_out" from="hr_junction" to="hr_west" priority="1">
        <lane id="hr_west_out_0" index="0" speed="13.89" length="282.05" shape="-817.95,804.95 -1100.00,804.95"/>
        <lane id="hr_west_out_1" index="1" speed="13.89" length="282.05" shape="-817.95,801.65 -1100.00,801.65"/>
    </edge>

    <tlLogic id="hr_junction" type="static" programID="0" offset="0">
        <phase duration="31" state="rrrrrrGGGggrrrrrGGGgg"/>
        <phase duration="4" state="rrrrrryyyggrrrrryyygg"/>
        <phase duration="6" state="rrrrrrrrrGGrrrrrrrrGG"/>
        <phase duration="4" state="rrrrrrrrryyrrrrrrrryy"/>
        <phase duration="31" state="GGGGggrrrrrGGGggrrrrr"/>
        <phase duration="4" state="yyyyggrrrrryyyggrrrrr"/>
        <phase duration="6" state="rrrrGGrrrrrrrrGGrrrrr"/>
        <phase duration="4" state="rrrryyrrrrrrrryyrrrrr"/>
    </tlLogic>

    <junction id="gneJ0" type="dead_end" x="-799.99" y="699.95" incLanes="" intLanes="" shape="-799.99,699.95"/>
    <junction id="gneJ10" type="dead_end" x="-700.26" y="289.51" incLanes="gneE7_0" intLanes="" shape="-700.26,289.56 -700.26,286.26 -700.26,289.46"/>
    <junction id="gneJ11" type="dead_end" x="-800.00" y="200.00" incLanes="gneE8_0 gneE8_1" intLanes="" shape="-799.95,200.00 -806.55,200.00 -800.05,200.00"/>
    <junction id="gneJ5" type="priority" x="-800.35" y="354.76" incLanes="gneE3_0 gneE3_1 -gneE5_0 -gneE5_1" intLanes=":gneJ5_0_0 :gneJ5_0_1 :gneJ5_0_2 :gneJ5_0_3 :gneJ5_4_0 :gneJ5_4_1" shape="-806.90,356.25 -793.80,356.24 -793.80,353.30 -813.50,353.18">
        <request index="0" response="000000" foes="000000" cont="0"/>
        <request index="1" response="000000" foes="000000" cont="0"/>
        <request index="2" response="000000" foes="000000" cont="0"/>
        <request index="3" response="000000" foes="000000" cont="0"/>
        <request index="4" response="000000" foes="000000" cont="0"/>
        <request index="5" response="000000" foes="000000" cont="0"/>
    </junction>
    <junction id="gneJ8" type="priority" x="-799.97" y="289.49" incLanes="-gneE7_0 -gneE8_0 -gneE8_1 -gneE8_2 -gneE8_3 -gneE6_0 gneE5_0 gneE5_1 gneE5_2 gneE5_3" intLanes=":gneJ8_0_0 :gneJ8_1_0 :gneJ8_2_0 :gneJ8_3_0 :gneJ8_4_0 :gneJ8_4_1 :gneJ8_14_0 :gneJ8_7_0 :gneJ8_8_0 :gneJ8_9_0 :gneJ8_10_0 :gneJ8_11_0 :gneJ8_11_1 :gneJ8_15_0" shape="-785.32,292.74 -785.32,286.24 -786.82,284.73 -806.52,284.74 -814.64,286.24 -814.64,292.74 -813.15,294.24 -793.45,294.36">
        <request index="0" response="00000000110000" foes="00001000110000" cont="0"/>
        <request index="1" response="11110001110000" foes="11111001110000" cont="0"/>
        <request index="2" response="11100111110000" foes="11100111110000" cont="0"/>
        <request index="3" response="00000000000000" foes="10000100000000" cont="0"/>
        <request index="4" response="00000000000000" foes="10001100000111" cont="0"/>
        <request index="5" response="00000000000000" foes="10001100000111" cont="0"/>
        <request index="6" response="01110000000000" foes="01111100000110" cont="1"/>
        <request index="7" response="01100000000000" foes="01100000000100" cont="0"/>
        <request index="8" response="11100001111000" foes="11100001111100" cont="0"/>
        <request index="9" response="11100001110011" foes="11100001110011" cont="0"/>
        <request index="10" response="00000000000000" foes="00000001000010" cont="0"/>
        <request index="11" response="00000000000000" foes="00001111000110" cont="0"/>
        <request index="12" response="00000000000000" foes="00001111000110" cont="0"/>
        <request index="13" response="00000000111000" foes="00001100111110" cont="1"/>
    </junction>
    <junction id="gneJ9" type="dead_end" x="-899.86" y="289.51" incLanes="gneE6_0" intLanes="" shape="-899.86,289.46 -899.86,292.76 -899.86,289.56"/>
    <junction id="hr_east" type="dead_end" x="-500.00" y="800.00" incLanes="hr_east_out_0 hr_east_out_1" intLanes="" shape="-500.00,800.05 -500.00,793.45 -500.00,799.95"/>
    <junction id="hr_junction" type="traffic_light" x="-800.00" y="800.00" incLanes="hr_north_in_0 hr_north_in_1 hr_north_in_2 hr_north_in_3 hr_north_in_4 hr_east_in_0 hr_east_in_1 hr_east_in_2 hr_east_in_3 hr_east_in_4 hr_south_in_0 hr_south_in_1 hr_south_in_2 hr_south_in_3 hr_west_in_0 hr_west_in_1 hr_west_in_2 hr_west_in_3 hr_west_in_4" intLanes=":hr_junction_0_0 :hr_junction_0_1 :hr_junction_2_0 :hr_junction_2_1 :hr_junction_21_0 :hr_junction_22_0 :hr_junction_6_0 :hr_junction_7_0 :hr_junction_7_1 :hr_junction_23_0 :hr_junction_24_0 :hr_junction_11_0 :hr_junction_12_0 :hr_junction_12_1 :hr_junction_25_0 :hr_junction_26_0 :hr_junction_16_0 :hr_junction_17_0 :hr_junction_17_1 :hr_junction_27_0 :hr_junction_28_0" shape="-816.45,817.95 -790.15,817.95 -785.35,816.45 -785.35,793.45 -786.85,782.05 -806.55,782.05 -817.95,783.55 -817.95,806.55">
        <request index="0" response="000000000000110000000" foes="000001100000110000000" cont="0"/>
        <request index="1" response="000000000000110000000" foes="000001100000110000000" cont="0"/>
        <request index="2" response="111110000011110000000" foes="111111100011110000000" cont="0"/>
        <request index="3" response="111110000011110000000" foes="111111100011110000000" cont="0"/>
        <request index="4" response="111100011111110000000" foes="111100011111110000000" cont="1"/>
        <request index="5" response="111100011111110000000" foes="111100011111110000000" cont="1"/>
        <request index="6" response="000000000000000000000" foes="110000011000000000000" cont="0"/>
        <request index="7" response="000000000000000000000" foes="110001111000000111111" cont="0"/>
        <request index="8" response="000000000000000000000" foes="110001111000000111111" cont="0"/>
        <request index="9" response="001110000000000000000" foes="001111111000000111100" cont="1"/>
        <request index="10" response="001110000000000000000" foes="001111111000000111100" cont="1"/>
        <request index="11" response="001100000000000000000" foes="001100000000000110000" cont="0"/>
        <request index="12" response="111100000011111000000" foes="111100000011111110000" cont="0"/>
        <request index="13" response="111100000011111000000" foes="111100000011111110000" cont="0"/>
        <request index="14" response="111100000011110001111" foes="111100000011110001111" cont="1"/>
        <request index="15" response="111100000011110001111" foes="111100000011110001111" cont="1"/>
        <request index="16" response="000000000000000000000" foes="000000000011000001100" cont="0"/>
        <request index="17" response="000000000000000000000" foes="000001111111000111100" cont="0"/>
        <request index="18" response="000000000000000000000" foes="000001111111000111100" cont="0"/>
        <request index="19" response="000000000000111000000" foes="000001111000111111100" cont="1"/>
        <request index="20" response="000000000000111000000" foes="000001111000111111100" cont="1"/>
    </junction>
    <junction id="hr_north" type="dead_end" x="-800.00" y="1000.00" incLanes="hr_north_out_0 hr_north_out_1 hr_north_out_2" intLanes="" shape="-800.05,1000.00 -790.15,1000.00 -799.95,1000.00"/>
    <junction id="hr_south" type="priority" x="-800.00" y="700.00" incLanes="hr_south_out_0 hr_south_out_1 -gneE3_0 -gneE3_1" intLanes=":hr_south_0_0 :hr_south_0_1 :hr_south_2_0 :hr_south_2_1 :hr_south_2_2 :hr_south_2_3" shape="-806.55,701.50 -786.85,701.50 -793.45,698.50 -806.55,698.51">
        <request index="0" response="000000" foes="000000" cont="0"/>
        <request index="1" response="000000" foes="000000" cont="0"/>
        <request index="2" response="000000" foes="000000" cont="0"/>
        <request index="3" response="000000" foes="000000" cont="0"/>
        <request index="4" response="000000" foes="000000" cont="0"/>
        <request index="5" response="000000" foes="000000" cont="0"/>
    </junction>
    <junction id="hr_west" type="dead_end" x="-1100.00" y="800.00" incLanes="hr_west_out_0 hr_west_out_1" intLanes="" shape="-1100.00,799.95 -1100.00,806.55 -1100.00,800.05"/>

    <junction id=":gneJ8_14_0" type="internal" x="-800.76" y="288.47" incLanes=":gneJ8_6_0 gneE5_0 gneE5_1 gneE5_2" intLanes=":gneJ8_1_0 :gneJ8_2_0 :gneJ8_8_0 :gneJ8_9_0 :gneJ8_10_0 :gneJ8_11_0 :gneJ8_11_1"/>
    <junction id=":gneJ8_15_0" type="internal" x="-799.15" y="290.51" incLanes=":gneJ8_13_0 -gneE8_0 -gneE8_1 -gneE8_2" intLanes=":gneJ8_1_0 :gneJ8_2_0 :gneJ8_3_0 :gneJ8_4_0 :gneJ8_4_1 :gneJ8_8_0 :gneJ8_9_0"/>
    <junction id=":hr_junction_21_0" type="internal" x="-798.65" y="803.29" incLanes=":hr_junction_4_0 hr_south_in_0 hr_south_in_1 hr_south_in_2" intLanes=":hr_junction_7_0 :hr_junction_7_1 :hr_junction_9_0 :hr_junction_9_1 :hr_junction_11_0 :hr_junction_12_0 :hr_junction_12_1 :hr_junction_17_0 :hr_junction_17_1 :hr_junction_19_0 :hr_junction_19_1"/>
    <junction id=":hr_junction_22_0" type="internal" x="-799.11" y="806.34" incLanes=":hr_junction_4_1 hr_south_in_0 hr_south_in_1 hr_south_in_2" intLanes=":hr_junction_7_0 :hr_junction_7_1 :hr_junction_9_0 :hr_junction_9_1 :hr_junction_11_0 :hr_junction_12_0 :hr_junction_12_1 :hr_junction_17_0 :hr_junction_17_1 :hr_junction_19_0 :hr_junction_19_1"/>
    <junction id=":hr_junction_23_0" type="internal" x="-801.71" y="796.00" incLanes=":hr_junction_9_0 hr_west_in_0 hr_west_in_1 hr_west_in_2" intLanes=":hr_junction_2_0 :hr_junction_2_1 :hr_junction_4_0 :hr_junction_4_1 :hr_junction_12_0 :hr_junction_12_1 :hr_junction_14_0 :hr_junction_14_1 :hr_junction_16_0 :hr_junction_17_0 :hr_junction_17_1"/>
    <junction id=":hr_junction_24_0" type="internal" x="-796.26" y="797.70" incLanes=":hr_junction_9_1 hr_west_in_0 hr_west_in_1 hr_west_in_2" intLanes=":hr_junction_2_0 :hr_junction_2_1 :hr_junction_4_0 :hr_junction_4_1 :hr_junction_12_0 :hr_junction_12_1 :hr_junction_14_0 :hr_junction_14_1 :hr_junction_16_0 :hr_junction_17_0 :hr_junction_17_1"/>
    <junction id=":hr_junction_25_0" type="internal" x="-801.51" y="795.84" incLanes=":hr_junction_14_0 hr_north_in_0 hr_north_in_1 hr_north_in_2 hr_north_in_3" intLanes=":hr_junction_0_0 :hr_junction_0_1 :hr_junction_2_0 :hr_junction_2_1 :hr_junction_7_0 :hr_junction_7_1 :hr_junction_9_0 :hr_junction_9_1 :hr_junction_17_0 :hr_junction_17_1 :hr_junction_19_0 :hr_junction_19_1"/>
    <junction id=":hr_junction_26_0" type="internal" x="-801.12" y="793.20" incLanes=":hr_junction_14_1 hr_north_in_0 hr_north_in_1 hr_north_in_2 hr_north_in_3" intLanes=":hr_junction_0_0 :hr_junction_0_1 :hr_junction_2_0 :hr_junction_2_1 :hr_junction_7_0 :hr_junction_7_1 :hr_junction_9_0 :hr_junction_9_1 :hr_junction_17_0 :hr_junction_17_1 :hr_junction_19_0 :hr_junction_19_1"/>
    <junction id=":hr_junction_27_0" type="internal" x="-798.28" y="804.93" incLanes=":hr_junction_19_0 hr_east_in_0 hr_east_in_1 hr_east_in_2" intLanes=":hr_junction_2_0 :hr_junction_2_1 :hr_junction_4_0 :hr_junction_4_1 :hr_junction_6_0 :hr_junction_7_0 :hr_junction_7_1 :hr_junction_12_0 :hr_junction_12_1 :hr_junction_14_0 :hr_junction_14_1"/>
    <junction id=":hr_junction_28_0" type="internal" x="-803.04" y="803.60" incLanes=":hr_junction_19_1 hr_east_in_0 hr_east_in_1 hr_east_in_2" intLanes=":hr_junction_2_0 :hr_junction_2_1 :hr_junction_4_0 :hr_junction_4_1 :hr_junction_6_0 :hr_junction_7_0 :hr_junction_7_1 :hr_junction_12_0 :hr_junction_12_1 :hr_junction_14_0 :hr_junction_14_1"/>

    <connection from="-gneE3" to="hr_south_in" fromLane="0" toLane="0" via=":hr_south_2_0" dir="s" state="M"/>
    <connection from="-gneE3" to="hr_south_in" fromLane="0" toLane="1" via=":hr_south_2_1" dir="s" state="M"/>
    <connection from="-gneE3" to="hr_south_in" fromLane="1" toLane="2" via=":hr_south_2_2" dir="s" state="M"/>
    <connection from="-gneE3" to="hr_south_in" fromLane="1" toLane="3" via=":hr_south_2_3" dir="s" state="M"/>
    <connection from="-gneE5" to="-gneE3" fromLane="0" toLane="0" via=":gneJ5_4_0" dir="s" state="M"/>
    <connection from="-gneE5" to="-gneE3" fromLane="1" toLane="1" via=":gneJ5_4_1" dir="s" state="M"/>
    <connection from="-gneE6" to="gneE8" fromLane="0" toLane="0" via=":gneJ8_7_0" dir="r" state="m"/>
    <connection from="-gneE6" to="gneE7" fromLane="0" toLane="0" via=":gneJ8_8_0" dir="s" state="m"/>
    <connection from="-gneE6" to="-gneE5" fromLane="0" toLane="0" via=":gneJ8_9_0" dir="l" state="m"/>