<?xml version="1.0" encoding="UTF-8"?>

<!-- generated on Wed Sep 20 11:20:37 2017 by Netedit Version 0.30.0
<?xml version="1.0" encoding="UTF-8"?>

<configuration xmlns:xsi="http://www.w3.org/2001/XMLSchema-instance" xsi:noNamespaceSchemaLocation="http://sumo.dlr.de/xsd/netconvertConfiguration.xsd">

    <input>
        <sumo-net-file value="hasle_randers.net.xml"/>
    </input>

    <output>
        <output-file value="hasle_randers.net.xml"/>
    </output>

    <processing>
        <no-turnarounds value="true"/>
        <offset.disable-normalization value="true"/>
        <lefthand value="false"/>
        <junctions.corner-detail value="0"/>
        <rectangular-lane-cut value="false"/>
    </processing>

</configuration>
-->

<net version="0.27" xmlns:xsi="http://www.w3.org/2001/XMLSchema-instance" xsi:noNamespaceSchemaLocation="http://sumo.dlr.de/xsd/net_file.xsd">

    <location netOffset="0.00,0.00" convBoundary="-1100.00,-300.00,-500.00,1000.00" origBoundary="-10000000000.00,-10000000000.00,10000000000.00,10000000000.00" projParameter="!"/>

    <edge id=":gneJ11_0" function="internal">
        <lane id=":gneJ11_0_0" index="0" speed="13.89" length="3.00" shape="-804.91,247.17 -804.91,244.17"/>
        <lane id=":gneJ11_0_1" index="1" speed="13.89" length="3.00" shape="-801.61,247.17 -801.61,244.17"/>
    </edge>
    <edge id=":gneJ11_2" function="internal">
        <lane id=":gneJ11_2_0" index="0" speed="13.89" length="4.79" shape="-795.01,244.17 -788.41,247.17"/>
        <lane id=":gneJ11_2_1" index="1" speed="13.89" length="4.79" shape="-795.01,244.17 -791.71,247.17"/>
        <lane id=":gneJ11_2_2" index="2" speed="13.89" length="4.79" shape="-798.31,244.17 -795.01,247.17"/>
        <lane id=":gneJ11_2_3" index="3" speed="13.89" length="4.79" shape="-798.31,244.17 -798.31,247.17"/>
    </edge>
    <edge id=":gneJ18_0" function="internal">
        <lane id=":gneJ18_0_0" index="0" speed="13.89" length="3.97" shape="-804.95,-98.50 -808.25,-101.50"/>
        <lane id=":gneJ18_0_1" index="1" speed="13.89" length="3.97" shape="-801.65,-98.50 -804.95,-101.50"/>
        <lane id=":gneJ18_0_2" index="2" speed="13.89" length="3.97" shape="-801.65,-98.50 -801.65,-101.50"/>
    </edge>
    <edge id=":gneJ18_3" function="internal">
        <lane id=":gneJ18_3_0" index="0" speed="13.89" length="3.00" shape="-795.05,-101.50 -795.05,-98.50"/>
        <lane id=":gneJ18_3_1" index="1" speed="13.89" length="3.00" shape="-798.35,-101.50 -798.35,-98.50"/>
    </edge>
    <edge id=":gneJ24_0" function="internal">
        <lane id=":gneJ24_0_0" index="0" speed="13.89" length="13.25" shape="-808.25,-195.25 -807.73,-199.08 -806.60,-201.60 -805.47,-204.11 -804.95,-207.94"/>
        <lane id=":gneJ24_0_1" index="1" speed="13.89" length="13.25" shape="-804.95,-195.25 -804.43,-199.08 -803.30,-201.60 -802.17,-204.11 -801.65,-207.94"/>
    </edge>
    <edge id=":gneJ24_2" function="internal">
        <lane id=":gneJ24_2_0" index="0" speed="13.89" length="4.06" shape="-801.65,-195.25 -800.84,-198.05 -799.95,-198.78"/>
    </edge>
    <edge id=":gneJ24_11" function="internal">
        <lane id=":gneJ24_11_0" index="0" speed="13.89" length="11.94" shape="-799.95,-198.78 -798.40,-200.05 -794.34,-201.25 -788.65,-201.65"/>
    </edge>
    <edge id=":gneJ24_3" function="internal">
        <lane id=":gneJ24_3_0" index="0" speed="13.89" length="7.85" shape="-788.65,-198.35 -791.45,-198.16 -793.45,-197.57 -794.65,-196.61 -795.05,-195.25"/>
    </edge>
    <edge id=":gneJ24_4" function="internal">
        <lane id=":gneJ24_4_0" index="0" speed="13.89" length="18.30" shape="-788.65,-198.35 -794.34,-198.95 -798.40,-200.75 -800.84,-203.74 -801.65,-207.94"/>
    </edge>
    <edge id=":gneJ24_5" function="internal">
        <lane id=":gneJ24_5_0" index="0" speed="13.89" length="7.75" shape="-791.75,-207.94 -791.56,-205.19 -790.98,-203.22 -790.01,-202.04 -788.65,-201.65"/>
    </edge>
    <edge id=":gneJ24_6" function="internal">
        <lane id=":gneJ24_6_0" index="0" speed="13.89" length="12.69" shape="-795.05,-207.94 -795.05,-195.25"/>
        <lane id=":gneJ24_6_1" index="1" speed="13.89" length="12.69" shape="-798.35,-207.94 -798.35,-195.25"/>
    </edge>
    <edge id=":gneJ24_8" function="internal">
        <lane id=":gneJ24_8_0" index="0" speed="13.89" length="7.28" shape="-810.58,-206.47 -808.12,-205.63 -806.36,-205.60 -805.30,-206.37 -804.95,-207.94"/>
    </edge>
    <edge id=":gneJ24_9" function="internal">
        <lane id=":gneJ24_9_0" index="0" speed="13.89" length="22.52" shape="-810.58,-206.47 -805.92,-204.86 -799.77,-203.30 -793.54,-202.12 -788.65,-201.65"/>
    </edge>
    <edge id=":gneJ24_10" function="internal">
        <lane id=":gneJ24_10_0" index="0" speed="13.89" length="17.35" shape="-810.58,-206.47 -805.23,-203.74 -801.41,-200.97 -799.11,-198.14 -798.35,-195.25"/>
    </edge>
    <edge id=":gneJ5_0" function="internal">
        <lane id=":gneJ5_0_0" index="0" speed="13.89" length="4.80" shape="-805.30,356.25 -811.90,353.19"/>
        <lane id=":gneJ5_0_1" index="1" speed="13.89" length="4.80" shape="-805.30,356.25 -808.60,353.21"/>
        <lane id=":gneJ5_0_2" index="2" speed="13.89" length="4.80" shape="-802.00,356.25 -805.30,353.23"/>
        <lane id=":gneJ5_0_3" index="3" speed="13.89" length="4.80" shape="-802.00,356.25 -802.00,353.25"/>
    </edge>
    <edge id=":gneJ5_4" function="internal">
        <lane id=":gneJ5_4_0" index="0" speed="13.89" length="2.96" shape="-795.40,353.29 -795.40,356.24"/>
        <lane id=":gneJ5_4_1" index="1" speed="13.89" length="2.96" shape="-798.70,353.27 -798.70,356.24"/>
    </edge>
    <edge id=":hr_0" function="internal">
        <lane id=":hr_0_0" index="0" speed="13.89" length="16.50" shape="-814.85,817.95 -815.04,812.26 -815.62,808.20 -816.59,805.76 -817.95,804.95"/>
        <lane id=":hr_0_1" index="1" speed="13.89" length="16.50" shape="-811.55,817.95 -811.95,810.82 -813.15,805.73 -815.15,802.67 -817.95,801.65"/>
    </edge>
    <edge id=":hr_2" function="internal">
        <lane id=":hr_2_0" index="0" speed="13.89" length="36.08" shape="-808.25,817.95 -807.73,806.14 -806.60,796.99 -805.47,789.34 -804.95,782.05"/>
        <lane id=":hr_2_1" index="1" speed="13.89" length="36.08" shape="-804.95,817.95 -804.43,806.14 -803.30,796.99 -802.17,789.34 -801.65,782.05"/>
    </edge>
    <edge id=":hr_4" function="internal">
        <lane id=":hr_4_0" index="0" speed="13.89" length="13.58" shape="-801.65,817.95 -800.63,807.93 -798.65,803.29"/>
        <lane id=":hr_4_1" index="1" speed="13.89" length="13.58" shape="-801.65,817.95 -800.63,809.38 -799.11,806.34"/>
    </edge>
    <edge id=":hr_21" function="internal">
        <lane id=":hr_21_0" index="0" speed="13.89" length="16.67" shape="-798.65,803.29 -797.57,800.78 -792.48,796.48 -785.35,795.05"/>
    </edge>
    <edge id=":hr_22" function="internal">
        <lane id=":hr_22_0" index="0" speed="13.89" length="16.96" shape="-799.11,806.34 -797.57,803.25 -792.48,799.58 -785.35,798.35"/>
    </edge>
    <edge id=":hr_6" function="internal">
        <lane id=":hr_6_0" index="0" speed="13.89" length="7.85" shape="-785.35,814.85 -788.15,815.04 -790.15,815.62 -791.35,816.59 -791.75,817.95"/>
    </edge>
    <edge id=":hr_7" function="internal">
        <lane id=":hr_7_0" index="0" speed="13.89" length="33.40" shape="-785.35,811.55 -796.05,810.52 -804.14,808.25 -810.98,805.98 -817.95,804.95"/>
        <lane id=":hr_7_1" index="1" speed="13.89" length="33.40" shape="-785.35,808.25 -796.05,807.22 -804.14,804.95 -810.98,802.68 -817.95,801.65"/>
    </edge>
    <edge id=":hr_9" function="internal">
        <lane id=":hr_9_0" index="0" speed="13.89" length="15.85" shape="-785.35,804.95 -793.93,803.52 -800.05,799.23 -801.71,796.00"/>
        <lane id=":hr_9_1" index="1" speed="13.89" length="15.85" shape="-785.35,801.65 -792.48,800.42 -796.26,797.70"/>
    </edge>
    <edge id=":hr_23" function="internal">
        <lane id=":hr_23_0" index="0" speed="13.89" length="14.51" shape="-801.71,796.00 -803.73,792.07 -804.95,782.05"/>
    </edge>
    <edge id=":hr_24" function="internal">
        <lane id=":hr_24_0" index="0" speed="13.89" length="17.10" shape="-796.26,797.70 -797.58,796.75 -800.63,790.62 -801.65,782.05"/>
    </edge>
    <edge id=":hr_11" function="internal">
        <lane id=":hr_11_0" index="0" speed="13.89" length="14.00" shape="-788.45,782.05 -788.26,787.74 -787.68,791.80 -786.71,794.24 -785.35,795.05"/>
    </edge>
    <edge id=":hr_12" function="internal">
        <lane id=":hr_12_0" index="0" speed="13.89" length="36.09" shape="-791.75,782.05 -792.27,793.15 -793.40,801.13 -794.53,808.55 -795.05,817.95"/>
        <lane id=":hr_12_1" index="1" speed="13.89" length="36.09" shape="-795.05,782.05 -795.57,793.15 -796.70,801.13 -797.83,808.55 -798.35,817.95"/>
    </edge>
    <edge id=":hr_14" function="internal">
        <lane id=":hr_14_0" index="0" speed="13.89" length="13.00" shape="-798.35,782.05 -799.58,792.07 -801.51,795.84"/>
        <lane id=":hr_14_1" index="1" speed="13.89" length="13.00" shape="-798.35,782.05 -799.58,790.62 -801.12,793.20"/>
    </edge>
    <edge id=":hr_25" function="internal">
        <lane id=":hr_25_0" index="0" speed="13.89" length="19.98" shape="-801.51,795.84 -803.25,799.22 -809.38,803.52 -817.95,804.95"/>
    </edge>
    <edge id=":hr_26" function="internal">
        <lane id=":hr_26_0" index="0" speed="13.89" length="19.94" shape="-801.12,793.20 -803.25,796.75 -809.38,800.42 -817.95,801.65"/>
    </edge>
    <edge id=":hr_16" function="internal">
        <lane id=":hr_16_0" index="0" speed="13.89" length="14.00" shape="-817.95,785.15 -812.26,784.96 -808.20,784.38 -805.76,783.41 -804.95,782.05"/>
    </edge>
    <edge id=":hr_17" function="internal">
        <lane id=":hr_17_0" index="0" speed="13.89" length="33.40" shape="-817.95,788.45 -807.25,789.48 -799.16,791.75 -792.32,794.02 -785.35,795.05"/>
        <lane id=":hr_17_1" index="1" speed="13.89" length="33.40" shape="-817.95,791.75 -807.25,792.78 -799.16,795.05 -792.32,797.32 -785.35,798.35"/>
    </edge>
    <edge id=":hr_19" function="internal">
        <lane id=":hr_19_0" index="0" speed="13.89" length="19.76" shape="-817.95,795.05 -807.93,796.48 -800.78,800.77 -798.28,804.93"/>
        <lane id=":hr_19_1" index="1" speed="13.89" length="19.76" shape="-817.95,798.35 -809.38,799.58 -803.25,803.25 -803.04,803.60"/>
    </edge>
    <edge id=":hr_27" function="internal">
        <lane id=":hr_27_0" index="0" speed="13.89" length="13.62" shape="-798.28,804.93 -796.48,807.93 -795.05,817.95"/>
    </edge>
    <edge id=":hr_28" function="internal">
        <lane id=":hr_28_0" index="0" speed="13.89" length="15.40" shape="-803.04,803.60 -799.58,809.38 -798.35,817.95"/>
    </edge>
    <edge id=":hr_south_0" function="internal">
        <lane id=":hr_south_0_0" index="0" speed="13.89" length="2.99" shape="-804.95,701.50 -804.95,698.51"/>
        <lane id=":hr_south_0_1" index="1" speed="13.89" length="2.99" shape="-801.65,701.50 -801.65,698.50"/>
    </edge>
    <edge id=":hr_south_2" function="internal">
        <lane id=":hr_south_2_0" index="0" speed="13.89" length="4.79" shape="-795.05,698.50 -788.45,701.50"/>
        <lane id=":hr_south_2_1" index="1" speed="13.89" length="4.79" shape="-795.05,698.50 -791.75,701.50"/>
        <lane id=":hr_south_2_2" index="2" speed="13.89" length="4.79" shape="-798.35,698.50 -795.05,701.50"/>
        <lane id=":hr_south_2_3" index="3" speed="13.89" length="4.79" shape="-798.35,698.50 -798.35,701.50"/>
    </edge>
    <edge id=":mc_0" function="internal">
        <lane id=":mc_0_0" index="0" speed="13.89" length="15.32" shape="-785.32,291.14 -789.57,291.72 -792.62,293.46 -794.45,296.35 -795.08,300.40"/>
    </edge>
    <edge id=":mc_1" function="internal">
        <lane id=":mc_1_0" index="0" speed="13.89" length="30.69" shape="-785.32,291.14 -791.45,291.92 -800.41,293.79 -809.29,296.02 -815.19,297.93"/>
    </edge>
    <edge id=":mc_2" function="internal">
        <lane id=":mc_2_0" index="0" speed="13.89" length="22.07" shape="-785.32,291.14 -793.90,290.74 -800.02,289.54 -803.69,287.54 -804.92,284.74"/>
    </edge>
    <edge id=":mc_3" function="internal">
        <lane id=":mc_3_0" index="0" speed="13.89" length="5.00" shape="-788.42,284.74 -788.23,286.10 -787.64,287.07 -786.68,287.65 -785.32,287.84"/>
    </edge>
    <edge id=":mc_4" function="internal">
        <lane id=":mc_4_0" index="0" speed="13.89" length="16.12" shape="-791.72,284.74 -792.24,289.44 -793.38,292.57 -794.54,295.70 -795.08,300.40"/>
        <lane id=":mc_4_1" index="1" speed="13.89" length="16.12" shape="-795.02,284.74 -795.54,289.43 -796.68,292.56 -797.84,295.69 -798.38,300.38"/>
    </edge>
    <edge id=":mc_6" function="internal">
        <lane id=":mc_6_0" index="0" speed="13.89" length="4.74" shape="-798.32,284.74 -799.37,287.75 -800.47,288.86"/>
    </edge>
    <edge id=":mc_14" function="internal">
        <lane id=":mc_14_0" index="0" speed="13.89" length="17.42" shape="-800.47,288.86 -802.54,290.95 -807.81,294.34 -815.19,297.93"/>
    </edge>
    <edge id=":mc_7" function="internal">
        <lane id=":mc_7_0" index="0" speed="13.89" length="16.09" shape="-816.51,294.90 -811.44,292.37 -807.82,289.83 -805.64,287.29 -804.92,284.74"/>
    </edge>
    <edge id=":mc_8" function="internal">
        <lane id=":mc_8_0" index="0" speed="13.89" length="32.03" shape="-816.51,294.90 -810.40,292.96 -801.07,290.62 -791.66,288.66 -785.32,287.84"/>
    </edge>
    <edge id=":mc_9" function="internal">
        <lane id=":mc_9_0" index="0" speed="13.89" length="27.64" shape="-816.51,294.90 -807.10,291.73 -800.40,291.59 -796.39,294.48 -795.08,300.40"/>
    </edge>
    <edge id=":mc_10" function="internal">
        <lane id=":mc_10_0" index="0" speed="13.89" length="5.61" shape="-811.58,300.30 -811.80,298.67 -812.47,297.73 -813.60,297.48 -815.19,297.93"/>
    </edge>
    <edge id=":mc_11" function="internal">
        <lane id=":mc_11_0" index="0" speed="13.89" length="16.06" shape="-808.28,300.32 -807.74,295.65 -806.58,292.53 -805.44,289.42 -804.92,284.74"/>
        <lane id=":mc_11_1" index="1" speed="13.89" length="16.06" shape="-804.98,300.34 -804.44,295.66 -803.28,292.54 -802.14,289.42 -801.62,284.74"/>
    </edge>
    <edge id=":mc_13" function="internal">
        <lane id=":mc_13_0" index="0" speed="13.89" length="9.80" shape="-801.68,300.36 -800.63,294.88 -798.02,291.57"/>
    </edge>
    <edge id=":mc_15" function="internal">
        <lane id=":mc_15_0" index="0" speed="13.89" length="13.55" shape="-798.02,291.57 -797.56,290.97 -792.45,288.62 -785.32,287.84"/>
    </edge>

    <edge id="-gneE12" from="gneJ18" to="gneJ11" priority="1" shape="-800.00,-100.00 -799.96,245.67">
        <lane id="-gneE12_0" index="0" speed="13.89" length="342.67" shape="-795.05,-98.50 -795.01,244.17"/>
        <lane id="-gneE12_1" index="1" speed="13.89" length="342.67" shape="-798.35,-98.50 -798.31,244.17"/>
    </edge>
    <edge id="-gneE3" from="gneJ5" to="hr_south" priority="1">
        <lane id="-gneE3_0" index="0" speed="13.89" length="342.26" shape="-795.40,356.24 -795.05,698.50"/>
        <lane id="-gneE3_1" index="1" speed="13.89" length="342.26" shape="-798.70,356.24 -798.35,698.50"/>
    </edge>
    <edge id="gneE12" from="gneJ11" to="gneJ18" priority="1" shape="-799.96,245.67 -800.00,-100.00">
        <lane id="gneE12_0" index="0" speed="13.89" length="342.67" shape="-804.91,244.17 -804.95,-98.50"/>
        <lane id="gneE12_1" index="1" speed="13.89" length="342.67" shape="-801.61,244.17 -801.65,-98.50"/>
    </edge>
    <edge id="gneE3" from="hr_south" to="gneJ5" priority="1">
        <lane id="gneE3_0" index="0" speed="13.89" length="342.26" shape="-804.95,698.51 -805.30,356.25"/>
        <lane id="gneE3_1" index="1" speed="13.89" length="342.26" shape="-801.65,698.50 -802.00,356.25"/>
    </edge>
    <edge id="hr_east_in" from="hr_east" to="hr" priority="1">
        <lane id="hr_east_in_0" index="0" speed="13.89" length="285.35" shape="-500.00,814.85 -785.35,814.85"/>
        <lane id="hr_east_in_1" index="1" speed="13.89" length="285.35" shape="-500.00,811.55 -785.35,811.55"/>
        <lane id="hr_east_in_2" index="2" speed="13.89" length="285.35" shape="-500.00,808.25 -785.35,808.25"/>
        <lane id="hr_east_in_3" index="3" speed="13.89" length="285.35" shape="-500.00,804.95 -785.35,804.95"/>
        <lane id="hr_east_in_4" index="4" speed="13.89" length="285.35" shape="-500.00,801.65 -785.35,801.65"/>
    </edge>
    <edge id="hr_east_out" from="hr" to="hr_east" priority="1">
        <lane id="hr_east_out_0" index="0" speed="13.89" length="285.35" shape="-785.35,795.05 -500.00,795.05"/>
        <lane id="hr_east_out_1" index="1" speed="13.89" length="285.35" shape="-785.35,798.35 -500.00,798.35"/>
    </edge>
    <edge id="hr_north_in" from="hr_north" to="hr" priority="1">
        <lane id="hr_north_in_0" index="0" speed="13.89" length="182.05" shape="-814.85,1000.00 -814.85,817.95"/>
        <lane id="hr_north_in_1" index="1" speed="13.89" length="182.05" shape="-811.55,1000.00 -811.55,817.95"/>
        <lane id="hr_north_in_2" index="2" speed="13.89" length="182.05" shape="-808.25,1000.00 -808.25,817.95"/>
        <lane id="hr_north_in_3" index="3" speed="13.89" length="182.05" shape="-804.95,1000.00 -804.95,817.95"/>
        <lane id="hr_north_in_4" index="4" speed="13.89" length="182.05" shape="-801.65,1000.00 -801.65,817.95"/>
    </edge>
    <edge id="hr_north_out" from="hr" to="hr_north" priority="1">
        <lane id="hr_north_out_0" index="0" speed="13.89" length="182.05" shape="-791.75,817.95 -791.75,1000.00"/>
        <lane id="hr_north_out_1" index="1" speed="13.89" length="182.05" shape="-795.05,817.95 -795.05,1000.00"/>
        <lane id="hr_north_out_2" index="2" speed="13.89" length="182.05" shape="-798.35,817.95 -798.35,1000.00"/>
    </edge>
    <edge id="hr_south_in" from="hr_south" to="hr" priority="1">
        <lane id="hr_south_in_0" index="0" speed="13.89" length="80.55" shape="-788.45,701.50 -788.45,782.05"/>
        <lane id="hr_south_in_1" index="1" speed="13.89" length="80.55" shape="-791.75,701.50 -791.75,782.05"/>
        <lane id="hr_south_in_2" index="2" speed="13.89" length="80.55" shape="-795.05,701.50 -795.05,782.05"/>
        <lane id="hr_south_in_3" index="3" speed="13.89" length="80.55" shape="-798.35,701.50 -798.35,782.05"/>
    </edge>
    <edge id="hr_south_out" from="hr" to="hr_south" priority="1">
        <lane id="hr_south_out_0" index="0" speed="13.89" length="80.55" shape="-804.95,782.05 -804.95,701.50"/>
        <lane id="hr_south_out_1" index="1" speed="13.89" length="80.55" shape="-801.65,782.05 -801.65,701.50"/>
    </edge>
    <edge id="hr_west_in" from="hr_west" to="hr" priority="1">
        <lane id="hr_west_in_0" index="0" speed="13.89" length="282.05" shape="-1100.00,785.15 -817.95,785.15"/>
        <lane id="hr_west_in_1" index="1" speed="13.89" length="282.05" shape="-1100.00,788.45 -817.95,788.45"/>
        <lane id="hr_west_in_2" index="2" speed="13.89" length="282.05" shape="-1100.00,791.75 -817.95,791.75"/>
        <lane id="hr_west_in_3" index="3" speed="13.89" length="282.05" shape="-1100.00,795.05 -817.95,795.05"/>
        <lane id="hr_west_in_4" index="4" speed="13.89" length="282.05" shape="-1100.00,798.35 -817.95,798.35"/>
    </edge>
    <edge id="hr_west_out" from="hr" to="hr_west" priority="1">
        <lane id="hr_west_out_0" index="0" speed="13.89" length="282.05" shape="-817.95,804.95 -1100.00,804.95"/>
        <lane id="hr_west_out_1" index="1" speed="13.89" length="282.05" shape="-817.95,801.65 -1100.00,801.65"/>
    </edge>
    <edge id="mc_east_in" from="gneJ10" to="mc" priority="1">
        <lane id="mc_east_in_0" index="0" speed="13.89" length="85.06" shape="-700.26,291.16 -785.32,291.14"/>
    </edge>
    <edge id="mc_east_out" from="mc" to="gneJ10" priority="1">
        <lane id="mc_east_out_0" index="0" speed="13.89" length="85.06" shape="-785.32,287.84 -700.26,287.86"/>
    </edge>
    <edge id="mc_north_in" from="gneJ5" to="mc" priority="1">
        <lane id="mc_north_in_0" index="0" speed="13.89" length="52.89" shape="-811.90,353.19 -811.58,300.30"/>
        <lane id="mc_north_in_1" index="1" speed="13.89" length="52.89" shape="-808.60,353.21 -808.28,300.32"/>
        <lane id="mc_north_in_2" index="2" speed="13.89" length="52.89" shape="-805.30,353.23 -804.98,300.34"/>
        <lane id="mc_north_in_3" index="3" speed="13.89" length="52.89" shape="-802.00,353.25 -801.68,300.36"/>
    </edge>
    <edge id="mc_north_out" from="mc" to="gneJ5" priority="1">
        <lane id="mc_north_out_0" index="0" speed="13.89" length="52.89" shape="-795.08,300.40 -795.40,353.29"/>
        <lane id="mc_north_out_1" index="1" speed="13.89" length="52.89" shape="-798.38,300.38 -798.70,353.27"/>
    </edge>
    <edge id="mc_south_in" from="gneJ11" to="mc" priority="1">
        <lane id="mc_south_in_0" index="0" speed="13.89" length="37.57" shape="-788.41,247.17 -788.42,284.74"/>
        <lane id="mc_south_in_1" index="1" speed="13.89" length="37.57" shape="-791.71,247.17 -791.72,284.74"/>
        <lane id="mc_south_in_2" index="2" speed="13.89" length="37.57" shape="-795.01,247.17 -795.02,284.74"/>
        <lane id="mc_south_in_3" index="3" speed="13.89" length="37.57" shape="-798.31,247.17 -798.32,284.74"/>
    </edge>
    <edge id="mc_south_out" from="mc" to="gneJ11" priority="1">
        <lane id="mc_south_out_0" index="0" speed="13.89" length="37.57" shape="-804.92,284.74 -804.91,247.17"/>
        <lane id="mc_south_out_1" index="1" speed="13.89" length="37.57" shape="-801.62,284.74 -801.61,247.17"/>
    </edge>
    <edge id="mc_west_in" from="gneJ9" to="mc" priority="1">
        <lane id="mc_west_in_0" index="0" speed="13.89" length="114.14" shape="-921.14,340.53 -816.51,294.90"/>
    </edge>
    <edge id="mc_west_out" from="mc" to="gneJ9" priority="1">
        <lane id="mc_west_out_0" index="0" speed="13.89" length="114.14" shape="-815.19,297.93 -919.82,343.55"/>
    </edge>
    <edge id="st_east_in" from="gneJ26" to="gneJ24" priority="1">
        <lane id="st_east_in_0" index="0" speed="13.89" length="88.65" shape="-700.00,-198.35 -788.65,-198.35"/>
    </edge>
    <edge id="st_east_out" from="gneJ24" to="gneJ26" priority="1">
        <lane id="st_east_out_0" index="0" speed="13.89" length="88.65" shape="-788.65,-201.65 -700.00,-201.65"/>
    </edge>
    <edge id="st_north_in" from="gneJ18" to="gneJ24" priority="1">
        <lane id="st_north_in_0" index="0" speed="13.89" length="93.75" shape="-808.25,-101.50 -808.25,-195.25"/>
        <lane id="st_north_in_1" index="1" speed="13.89" length="93.75" shape="-804.95,-101.50 -804.95,-195.25"/>
        <lane id="st_north_in_2" index="2" speed="13.89" length="93.75" shape="-801.65,-101.50 -801.65,-195.25"/>
    </edge>
    <edge id="st_north_out" from="gneJ24" to="gneJ18" priority="1">
        <lane id="st_north_out_0" index="0" speed="13.89" length="93.75" shape="-795.05,-195.25 -795.05,-101.50"/>
        <lane id="st_north_out_1" index="1" speed="13.89" length="93.75" shape="-798.35,-195.25 -798.35,-101.50"/>
    </edge>
    <edge id="st_south_in" from="gneJ27" to="gneJ24" priority="1">
        <lane id="st_south_in_0" index="0" speed="13.89" length="92.06" shape="-791.75,-300.00 -791.75,-207.94"/>
        <lane id="st_south_in_1" index="1" speed="13.89" length="92.06" shape="-795.05,-300.00 -795.05,-207.94"/>
        <lane id="st_south_in_2" index="2" speed="13.89" length="92.06" shape="-798.35,-300.00 -798.35,-207.94"/>
    </edge>
    <edge id="st_south_out" from="gneJ24" to="gneJ27" priority="1">
        <lane id="st_south_out_0" index="0" speed="13.89" length="92.06" shape="-804.95,-207.94 -804.95,-300.00"/>
        <lane id="st_south_out_1" index="1" speed="13.89" length="92.06" shape="-801.65,-207.94 -801.65,-300.00"/>
    </edge>
    <edge id="st_west_in" from="gneJ25" to="gneJ24" priority="1">
        <lane id="st_west_in_0" index="0" speed="13.89" length="93.57" shape="-896.19,-244.22 -810.58,-206.47"/>
    </edge>

    <tlLogic id="hr_junction" type="static" programID="0" offset="0">
        <phase duration="31" state="rrrrrrGGGggrrrrrGGGgg"/>
        <phase duration="4" state="rrrrrryyyggrrrrryyygg"/>
        <phase duration="6" state="rrrrrrrrrGGrrrrrrrrGG"/>
        <phase duration="4" state="rrrrrrrrryyrrrrrrrryy"/>
        <phase duration="31" state="GGGGggrrrrrGGGggrrrrr"/>
        <phase duration="4" state="yyyyggrrrrryyyggrrrrr"/>
        <phase duration="6" state="rrrrGGrrrrrrrrGGrrrrr"/>
        <phase duration="4" state="rrrryyrrrrrrrryyrrrrr"/>
    </tlLogic>

    <junction id="gneJ0" type="dead_end" x="-799.99" y="699.95" incLanes="" intLanes="" shape="-799.99,699.95"/>
    <junction id="gneJ10" type="dead_end" x="-700.26" y="289.51" incLanes="mc_east_out_0" intLanes="" shape="-700.26,289.56 -700.26,286.26 -700.26,289.46"/>
    <junction id="gneJ11" type="priority" x="-799.96" y="245.67" incLanes="mc_south_out_0 mc_south_out_1 -gneE12_0 -gneE12_1" intLanes=":gneJ11_0_0 :gneJ11_0_1 :gneJ11_2_0 :gneJ11_2_1 :gneJ11_2_2 :gneJ11_2_3" shape="-806.51,247.17 -786.81,247.17 -793.41,244.17 -806.51,244.17">
        <request index="0" response="000000" foes="000000" cont="0"/>
        <request index="1" response="000000" foes="000000" cont="0"/>
        <request index="2" response="000000" foes="000000" cont="0"/>
        <request index="3" response="000000" foes="000000" cont="0"/>
        <request index="4" response="000000" foes="000000" cont="0"/>
        <request index="5" response="000000" foes="000000" cont="0"/>
    </junction>
    <junction id="gneJ18" type="priority" x="-800.00" y="-100.00" incLanes="gneE12_0 gneE12_1 st_north_out_0 st_north_out_1" intLanes=":gneJ18_0_0 :gneJ18_0_1 :gneJ18_0_2 :gneJ18_3_0 :gneJ18_3_1" shape="-806.55,-98.50 -793.45,-98.50 -793.45,-101.50 -809.85,-101.50">
        <request index="0" response="00000" foes="00000" cont="0"/>
        <request index="1" response="00000" foes="00000" cont="0"/>
        <request index="2" response="00000" foes="00000" cont="0"/>
        <request index="3" response="00000" foes="00000" cont="0"/>
        <request index="4" response="00000" foes="00000" cont="0"/>
    </junction>
    <junction id="gneJ24" type="priority" x="-800.00" y="-200.00" incLanes="st_north_in_0 st_north_in_1 st_north_in_2 st_east_in_0 st_south_in_0 st_south_in_1 st_south_in_2 st_west_in_0" intLanes=":gneJ24_0_0 :gneJ24_0_1 :gneJ24_11_0 :gneJ24_3_0 :gneJ24_4_0 :gneJ24_5_0 :gneJ24_6_0 :gneJ24_6_1 :gneJ24_8_0 :gneJ24_9_0 :gneJ24_10_0" shape="-809.85,-195.25 -793.45,-195.25 -788.65,-196.75 -788.65,-203.25 -790.15,-207.94 -806.55,-207.94 -809.93,-207.93 -811.22,-205.00">
        <request index="0" response="00000000000" foes="11100010000" cont="0"/>
        <request index="1" response="00000000000" foes="11100010000" cont="0"/>
        <request index="2" response="00011100000" foes="11011110000" cont="1"/>
        <request index="3" response="00011000000" foes="10011000000" cont="0"/>
        <request index="4" response="01111000111" foes="01111000111" cont="0"/>
        <request index="5" response="00000000000" foes="01000000100" cont="0"/>
        <request index="6" response="00000000000" foes="11000011100" cont="0"/>
        <request index="7" response="00000000000" foes="11000011100" cont="0"/>
        <request index="8" response="00000000011" foes="00000010011" cont="0"/>
        <request index="9" response="00011100111" foes="00011110111" cont="0"/>
        <request index="10" response="00011001111" foes="00011001111" cont="0"/>
    </junction>
    <junction id="gneJ25" type="dead_end" x="-896.86" y="-242.71" incLanes="" intLanes="" shape="-896.84,-242.76 -895.54,-245.69"/>
    <junction id="gneJ26" type="dead_end" x="-700.00" y="-200.00" incLanes="st_east_out_0" intLanes="" shape="-700.00,-199.95 -700.00,-203.25 -700.00,-200.05"/>
    <junction id="gneJ27" type="dead_end" x="-800.00" y="-300.00" incLanes="st_south_out_0 st_south_out_1" intLanes="" shape="-799.95,-300.00 -806.55,-300.00 -800.05,-300.00"/>
    <junction id="gneJ5" type="priority" x="-800.35" y="354.76" incLanes="gneE3_0 gneE3_1 mc_north_out_0 mc_north_out_1" intLanes=":gneJ5_0_0 :gneJ5_0_1 :gneJ5_0_2 :gneJ5_0_3 :gneJ5_4_0 :gneJ5_4_1" shape="-806.90,356.25 -793.80,356.24 -793.80,353.30 -813.50,353.18">
        <request index="0" response="000000" foes="000000" cont="0"/>
        <request index="1" response="000000" foes="000000" cont="0"/>
        <request index="2" response="000000" foes="000000" cont="0"/>
        <request index="3" response="000000" foes="000000" cont="0"/>
        <request index="4" response="000000" foes="000000" cont="0"/>
        <request index="5" response="000000" foes="000000" cont="0"/>
    </junction>
    <junction id="gneJ9" type="dead_end" x="-920.48" y="342.04" incLanes="mc_west_out_0" intLanes="" shape="-920.50,342.00 -919.18,345.02 -920.46,342.09"/>
    <junction id="hr" type="traffic_light" x="-800.00" y="800.00" incLanes="hr_north_in_0 hr_north_in_1 hr_north_in_2 hr_north_in_3 hr_north_in_4 hr_east_in_0 hr_east_in_1 hr_east_in_2 hr_east_in_3 hr_east_in_4 hr_south_in_0 hr_south_in_1 hr_south_in_2 hr_south_in_3 hr_west_in_0 hr_west_in_1 hr_west_in_2 hr_west_in_3 hr_west_in_4" intLanes=":hr_0_0 :hr_0_1 :hr_2_0 :hr_2_1 :hr_21_0 :hr_22_0 :hr_6_0 :hr_7_0 :hr_7_1 :hr_23_0 :hr_24_0 :hr_11_0 :hr_12_0 :hr_12_1 :hr_25_0 :hr_26_0 :hr_16_0 :hr_17_0 :hr_17_1 :hr_27_0 :hr_28_0" shape="-816.45,817.95 -790.15,817.95 -785.35,816.45 -785.35,793.45 -786.85,782.05 -806.55,782.05 -817.95,783.55 -817.95,806.55">
        <request index="0" response="000000000000110000000" foes="000001100000110000000" cont="0"/>
        <request index="1" response="000000000000110000000" foes="000001100000110000000" cont="0"/>
        <request index="2" response="111110000011110000000" foes="111111100011110000000" cont="0"/>