<routes>
    <vType id="typeWE" accel="0.8" decel="4.5" sigma="0.5" length="5" minGap="2.5" maxSpeed="16.67" guiShape="passenger"/>
    <route id="right" edges="hr_west_in gneE3" />
    <vehicle id="left_0" type="typeWE" route="right" depart="0" />
</routes>