<?xml version="1.0" encoding="UTF-8"?>

<!-- generated on Wed Sep 20 15:57:11 2017 by Netedit Version 0.30.0
<?xml version="1.0" encoding="UTF-8"?>

<configuration xmlns:xsi="http://www.w3.org/2001/XMLSchema-instance" xsi:noNamespaceSchemaLocation="http://sumo.dlr.de/xsd/netconvertConfiguration.xsd">

    <input>
        <sumo-net-file value="randersvej.net.xml"/>
    </input>

    <output>
        <output-file value="randersvej.net.xml"/>
    </output>

    <processing>
        <no-turnarounds value="true"/>
        <offset.disable-normalization value="true"/>
        <lefthand value="false"/>
        <junctions.corner-detail value="0"/>
        <rectangular-lane-cut value="false"/>
    </processing>

</configuration>
-->

<net version="0.27" xmlns:xsi="http://www.w3.org/2001/XMLSchema-instance" xsi:noNamespaceSchemaLocation="http://sumo.dlr.de/xsd/net_file.xsd">

    <location netOffset="0.00,0.00" convBoundary="-1100.00,-900.00,-500.00,1000.00" origBoundary="-10000000000.00,-10000000000.00,10000000000.00,10000000000.00" projParameter="!"/>

    <edge id=":gneJ11_0" function="internal">
        <lane id=":gneJ11_0_0" index="0" speed="13.89" length="3.00" shape="-804.91,247.17 -804.91,244.17"/>
        <lane id=":gneJ11_0_1" index="1" speed="13.89" length="3.00" shape="-801.61,247.17 -801.61,244.17"/>
    </edge>
    <edge id=":gneJ11_2" function="internal">
        <lane id=":gneJ11_2_0" index="0" speed="13.89" length="4.79" shape="-795.01,244.17 -788.41,247.17"/>
        <lane id=":gneJ11_2_1" index="1" speed="13.89" length="4.79" shape="-795.01,244.17 -791.71,247.17"/>
        <lane id=":gneJ11_2_2" index="2" speed="13.89" length="4.79" shape="-798.31,244.17 -795.01,247.17"/>
        <lane id=":gneJ11_2_3" index="3" speed="13.89" length="4.79" shape="-798.31,244.17 -798.31,247.17"/>
    </edge>
    <edge id=":gneJ18_0" function="internal">
        <lane id=":gneJ18_0_0" index="0" speed="13.89" length="3.97" shape="-804.95,-98.50 -808.25,-101.50"/>
        <lane id=":gneJ18_0_1" index="1" speed="13.89" length="3.97" shape="-801.65,-98.50 -804.95,-101.50"/>
        <lane id=":gneJ18_0_2" index="2" speed="13.89" length="3.97" shape="-801.65,-98.50 -801.65,-101.50"/>
    </edge>
    <edge id=":gneJ18_3" function="internal">
        <lane id=":gneJ18_3_0" index="0" speed="13.89" length="3.00" shape="-795.05,-101.50 -795.05,-98.50"/>
        <lane id=":gneJ18_3_1" index="1" speed="13.89" length="3.00" shape="-798.35,-101.50 -798.35,-98.50"/>
    </edge>
    <edge id=":gneJ27_0" function="internal">
        <lane id=":gneJ27_0_0" index="0" speed="13.89" length="8.69" shape="-805.06,-282.93 -818.26,-285.94"/>
        <lane id=":gneJ27_0_1" index="1" speed="13.89" length="8.69" shape="-801.76,-282.93 -814.96,-285.94"/>
        <lane id=":gneJ27_0_2" index="2" speed="13.89" length="8.69" shape="-801.76,-282.93 -811.66,-285.94"/>
        <lane id=":gneJ27_0_3" index="3" speed="13.89" length="8.69" shape="-801.76,-282.93 -808.36,-285.94"/>
        <lane id=":gneJ27_0_4" index="4" speed="13.89" length="8.69" shape="-801.76,-282.93 -805.06,-285.93"/>
        <lane id=":gneJ27_0_5" index="5" speed="13.89" length="8.69" shape="-801.76,-282.93 -801.76,-285.93"/>
    </edge>
    <edge id=":gneJ27_6" function="internal">
        <lane id=":gneJ27_6_0" index="0" speed="13.89" length="3.96" shape="-795.16,-285.93 -791.86,-282.95"/>
        <lane id=":gneJ27_6_1" index="1" speed="13.89" length="3.96" shape="-798.46,-285.93 -795.16,-282.94"/>
        <lane id=":gneJ27_6_2" index="2" speed="13.89" length="3.96" shape="-798.46,-285.93 -798.46,-282.94"/>
    </edge>
    <edge id=":gneJ36_0" function="internal">
        <lane id=":gneJ36_0_0" index="0" speed="13.89" length="3.01" shape="-805.04,-585.49 -805.04,-588.50"/>
        <lane id=":gneJ36_0_1" index="1" speed="13.89" length="3.01" shape="-801.74,-585.50 -801.74,-588.50"/>
    </edge>
    <edge id=":gneJ36_2" function="internal">
        <lane id=":gneJ36_2_0" index="0" speed="13.89" length="3.36" shape="-791.84,-588.50 -788.54,-585.51"/>
        <lane id=":gneJ36_2_1" index="1" speed="13.89" length="3.36" shape="-791.84,-588.50 -791.84,-585.51"/>
        <lane id=":gneJ36_2_2" index="2" speed="13.89" length="3.36" shape="-795.14,-588.50 -795.14,-585.50"/>
        <lane id=":gneJ36_2_3" index="3" speed="13.89" length="3.36" shape="-798.44,-588.50 -798.44,-585.50"/>
    </edge>
    <edge id=":gneJ37_0" function="internal">
        <lane id=":gneJ37_0_0" index="0" speed="13.89" length="3.49" shape="-919.49,-495.00 -922.49,-491.70"/>
        <lane id=":gneJ37_0_1" index="1" speed="13.89" length="3.49" shape="-919.49,-495.00 -922.49,-495.00"/>
        <lane id=":gneJ37_0_2" index="2" speed="13.89" length="3.49" shape="-919.49,-498.30 -922.49,-498.30"/>
    </edge>
    <edge id=":gneJ37_3" function="internal">
        <lane id=":gneJ37_3_0" index="0" speed="13.89" length="4.43" shape="-922.49,-508.20 -919.50,-514.80"/>
        <lane id=":gneJ37_3_1" index="1" speed="13.89" length="4.43" shape="-922.49,-508.20 -919.49,-511.50"/>
        <lane id=":gneJ37_3_2" index="2" speed="13.89" length="4.43" shape="-922.49,-504.90 -919.49,-508.20"/>
        <lane id=":gneJ37_3_3" index="3" speed="13.89" length="4.43" shape="-922.49,-504.90 -919.49,-504.90"/>
        <lane id=":gneJ37_3_4" index="4" speed="13.89" length="4.43" shape="-922.49,-501.60 -919.49,-501.60"/>
    </edge>
    <edge id=":gneJ38_0" function="internal">
        <lane id=":gneJ38_0_0" index="0" speed="13.89" length="5.90" shape="-737.89,-495.07 -740.89,-485.17"/>
        <lane id=":gneJ38_0_1" index="1" speed="13.89" length="5.90" shape="-737.89,-495.07 -740.89,-488.47"/>
        <lane id=":gneJ38_0_2" index="2" speed="13.89" length="5.90" shape="-737.89,-495.07 -740.89,-491.77"/>
        <lane id=":gneJ38_0_3" index="3" speed="13.89" length="5.90" shape="-737.89,-498.37 -740.89,-495.07"/>
        <lane id=":gneJ38_0_4" index="4" speed="13.89" length="5.90" shape="-737.89,-498.37 -740.89,-498.37"/>
    </edge>
    <edge id=":gneJ38_5" function="internal">
        <lane id=":gneJ38_5_0" index="0" speed="13.89" length="3.00" shape="-740.89,-504.97 -737.89,-504.97"/>
        <lane id=":gneJ38_5_1" index="1" speed="13.89" length="3.00" shape="-740.89,-501.67 -737.89,-501.67"/>
    </edge>
    <edge id=":gneJ5_0" function="internal">
        <lane id=":gneJ5_0_0" index="0" speed="13.89" length="4.80" shape="-805.30,356.25 -811.89,353.19"/>
        <lane id=":gneJ5_0_1" index="1" speed="13.89" length="4.80" shape="-805.30,356.25 -808.59,353.21"/>
        <lane id=":gneJ5_0_2" index="2" speed="13.89" length="4.80" shape="-802.00,356.25 -805.29,353.23"/>
        <lane id=":gneJ5_0_3" index="3" speed="13.89" length="4.80" shape="-802.00,356.25 -801.99,353.25"/>
    </edge>
    <edge id=":gneJ5_4" function="internal">
        <lane id=":gneJ5_4_0" index="0" speed="13.89" length="2.96" shape="-795.39,353.29 -795.40,356.24"/>
        <lane id=":gneJ5_4_1" index="1" speed="13.89" length="2.96" shape="-798.69,353.27 -798.70,356.25"/>
    </edge>
    <edge id=":hr_0" function="internal">
        <lane id=":hr_0_0" index="0" speed="13.89" length="16.50" shape="-814.85,817.95 -815.04,812.26 -815.62,808.20 -816.59,805.76 -817.95,804.95"/>
        <lane id=":hr_0_1" index="1" speed="13.89" length="16.50" shape="-811.55,817.95 -811.95,810.82 -813.15,805.73 -815.15,802.67 -817.95,801.65"/>
    </edge>
    <edge id=":hr_2" function="internal">
        <lane id=":hr_2_0" index="0" speed="13.89" length="36.08" shape="-808.25,817.95 -807.73,806.14 -806.60,796.99 -805.47,789.34 -804.95,782.05"/>
        <lane id=":hr_2_1" index="1" speed="13.89" length="36.08" shape="-804.95,817.95 -804.43,806.14 -803.30,796.99 -802.17,789.34 -801.65,782.05"/>
    </edge>
    <edge id=":hr_4" function="internal">
        <lane id=":hr_4_0" index="0" speed="13.89" length="13.58" shape="-801.65,817.95 -800.63,807.93 -798.65,803.29"/>
        <lane id=":hr_4_1" index="1" speed="13.89" length="13.58" shape="-801.65,817.95 -800.63,809.38 -799.11,806.34"/>
    </edge>
    <edge id=":hr_21" function="internal">
        <lane id=":hr_21_0" index="0" speed="13.89" length="16.67" shape="-798.65,803.29 -797.57,800.78 -792.48,796.48 -785.35,795.05"/>
    </edge>
    <edge id=":hr_22" function="internal">
        <lane id=":hr_22_0" index="0" speed="13.89" length="16.96" shape="-799.11,806.34 -797.57,803.25 -792.48,799.58 -785.35,798.35"/>
    </edge>
    <edge id=":hr_6" function="internal">
        <lane id=":hr_6_0" index="0" speed="13.89" length="7.85" shape="-785.35,814.85 -788.15,815.04 -790.15,815.62 -791.35,816.59 -791.75,817.95"/>
    </edge>
    <edge id=":hr_7" function="internal">
        <lane id=":hr_7_0" index="0" speed="13.89" length="33.40" shape="-785.35,811.55 -796.05,810.52 -804.14,808.25 -810.98,805.98 -817.95,804.95"/>
        <lane id=":hr_7_1" index="1" speed="13.89" length="33.40" shape="-785.35,808.25 -796.05,807.22 -804.14,804.95 -810.98,802.68 -817.95,801.65"/>
    </edge>
    <edge id=":hr_9" function="internal">
        <lane id=":hr_9_0" index="0" speed="13.89" length="15.85" shape="-785.35,804.95 -793.93,803.52 -800.05,799.23 -801.71,796.00"/>
        <lane id=":hr_9_1" index="1" speed="13.89" length="15.85" shape="-785.35,801.65 -792.48,800.42 -796.26,797.70"/>
    </edge>
    <edge id=":hr_23" function="internal">
        <lane id=":hr_23_0" index="0" speed="13.89" length="14.51" shape="-801.71,796.00 -803.73,792.07 -804.95,782.05"/>
    </edge>
    <edge id=":hr_24" function="internal">
        <lane id=":hr_24_0" index="0" speed="13.89" length="17.10" shape="-796.26,797.70 -797.58,796.75 -800.63,790.62 -801.65,782.05"/>
    </edge>
    <edge id=":hr_11" function="internal">
        <lane id=":hr_11_0" index="0" speed="13.89" length="14.00" shape="-788.45,782.05 -788.26,787.74 -787.68,791.80 -786.71,794.24 -785.35,795.05"/>
    </edge>
    <edge id=":hr_12" function="internal">
        <lane id=":hr_12_0" index="0" speed="13.89" length="36.09" shape="-791.75,782.05 -792.27,793.15 -793.40,801.13 -794.53,808.55 -795.05,817.95"/>
        <lane id=":hr_12_1" index="1" speed="13.89" length="36.09" shape="-795.05,782.05 -795.57,793.15 -796.70,801.13 -797.83,808.55 -798.35,817.95"/>
    </edge>
    <edge id=":hr_14" function="internal">
        <lane id=":hr_14_0" index="0" speed="13.89" length="13.00" shape="-798.35,782.05 -799.58,792.07 -801.51,795.84"/>
        <lane id=":hr_14_1" index="1" speed="13.89" length="13.00" shape="-798.35,782.05 -799.58,790.62 -801.12,793.20"/>
    </edge>
    <edge id=":hr_25" function="internal">
        <lane id=":hr_25_0" index="0" speed="13.89" length="19.98" shape="-801.51,795.84 -803.25,799.22 -809.38,803.52 -817.95,804.95"/>
    </edge>
    <edge id=":hr_26" function="internal">
        <lane id=":hr_26_0" index="0" speed="13.89" length="19.94" shape="-801.12,793.20 -803.25,796.75 -809.38,800.42 -817.95,801.65"/>
    </edge>
    <edge id=":hr_16" function="internal">
        <lane id=":hr_16_0" index="0" speed="13.89" length="14.00" shape="-817.95,785.15 -812.26,784.96 -808.20,784.38 -805.76,783.41 -804.95,782.05"/>
    </edge>
    <edge id=":hr_17" function="internal">
        <lane id=":hr_17_0" index="0" speed="13.89" length="33.40" shape="-817.95,788.45 -807.25,789.48 -799.16,791.75 -792.32,794.02 -785.35,795.05"/>
        <lane id=":hr_17_1" index="1" speed="13.89" length="33.40" shape="-817.95,791.75 -807.25,792.78 -799.16,795.05 -792.32,797.32 -785.35,798.35"/>
    </edge>
    <edge id=":hr_19" function="internal">
        <lane id=":hr_19_0" index="0" speed="13.89" length="19.76" shape="-817.95,795.05 -807.93,796.48 -800.78,800.77 -798.28,804.93"/>
        <lane id=":hr_19_1" index="1" speed="13.89" length="19.76" shape="-817.95,798.35 -809.38,799.58 -803.25,803.25 -803.04,803.60"/>
    </edge>
    <edge id=":hr_27" function="internal">
        <lane id=":hr_27_0" index="0" speed="13.89" length="13.62" shape="-798.28,804.93 -796.48,807.93 -795.05,817.95"/>
    </edge>
    <edge id=":hr_28" function="internal">
        <lane id=":hr_28_0" index="0" speed="13.89" length="15.40" shape="-803.04,803.60 -799.58,809.38 -798.35,817.95"/>
    </edge>
    <edge id=":hr_south_0" function="internal">
        <lane id=":hr_south_0_0" index="0" speed="13.89" length="2.99" shape="-804.95,701.50 -804.95,698.51"/>
        <lane id=":hr_south_0_1" index="1" speed="13.89" length="2.99" shape="-801.65,701.50 -801.65,698.50"/>
    </edge>
    <edge id=":hr_south_2" function="internal">
        <lane id=":hr_south_2_0" index="0" speed="13.89" length="4.79" shape="-795.05,698.50 -788.45,701.50"/>
        <lane id=":hr_south_2_1" index="1" speed="13.89" length="4.79" shape="-795.05,698.50 -791.75,701.50"/>
        <lane id=":hr_south_2_2" index="2" speed="13.89" length="4.79" shape="-798.35,698.50 -795.05,701.50"/>
        <lane id=":hr_south_2_3" index="3" speed="13.89" length="4.79" shape="-798.35,698.50 -798.35,701.50"/>
    </edge>
    <edge id=":mc_0" function="internal">
        <lane id=":mc_0_0" index="0" speed="13.89" length="15.72" shape="-785.33,291.17 -789.58,291.77 -792.62,293.60 -794.46,296.65 -795.09,300.93"/>
    </edge>
    <edge id=":mc_1" function="internal">
        <lane id=":mc_1_0" index="0" speed="13.89" length="30.84" shape="-785.33,291.17 -791.47,292.01 -800.45,294.04 -809.34,296.46 -815.22,298.51"/>
    </edge>
    <edge id=":mc_2" function="internal">
        <lane id=":mc_2_0" index="0" speed="13.89" length="8.05" shape="-785.33,291.17 -793.37,290.78"/>
    </edge>
    <edge id=":mc_14" function="internal">
        <lane id=":mc_14_0" index="0" speed="13.89" length="14.00" shape="-793.37,290.78 -793.90,290.75 -800.02,289.55 -803.70,287.55 -804.92,284.76"/>
    </edge>
    <edge id=":mc_3" function="internal">
        <lane id=":mc_3_0" index="0" speed="13.89" length="5.00" shape="-788.42,284.76 -788.23,286.12 -787.65,287.09 -786.68,287.67 -785.32,287.87"/>
    </edge>
    <edge id=":mc_4" function="internal">
        <lane id=":mc_4_0" index="0" speed="13.89" length="16.61" shape="-791.72,284.76 -792.24,289.61 -793.39,292.84 -794.54,296.08 -795.09,300.93"/>
        <lane id=":mc_4_1" index="1" speed="13.89" length="16.61" shape="-795.02,284.76 -795.54,289.60 -796.69,292.83 -797.84,296.06 -798.39,300.91"/>
    </edge>
    <edge id=":mc_6" function="internal">
        <lane id=":mc_6_0" index="0" speed="13.89" length="4.76" shape="-798.32,284.76 -799.38,287.79 -800.46,288.91"/>
    </edge>
    <edge id=":mc_15" function="internal">
        <lane id=":mc_15_0" index="0" speed="13.89" length="17.73" shape="-800.46,288.91 -802.54,291.09 -807.82,294.66 -815.22,298.51"/>
    </edge>
    <edge id=":mc_7" function="internal">
        <lane id=":mc_7_0" index="0" speed="13.89" length="16.56" shape="-816.63,295.53 -811.50,292.78 -807.85,290.07 -805.65,287.40 -804.92,284.76"/>
    </edge>
    <edge id=":mc_8" function="internal">
        <lane id=":mc_8_0" index="0" speed="13.89" length="32.29" shape="-816.63,295.53 -810.53,293.43 -801.15,290.89 -791.69,288.76 -785.32,287.87"/>
    </edge>
    <edge id=":mc_9" function="internal">
        <lane id=":mc_9_0" index="0" speed="13.89" length="17.63" shape="-816.63,295.53 -807.17,292.04 -800.43,291.77 -799.78,292.25"/>
    </edge>
    <edge id=":mc_16" function="internal">
        <lane id=":mc_16_0" index="0" speed="13.89" length="10.53" shape="-799.78,292.25 -796.40,294.73 -795.09,300.93"/>
    </edge>
    <edge id=":mc_10" function="internal">
        <lane id=":mc_10_0" index="0" speed="13.89" length="5.67" shape="-811.59,300.83 -811.80,299.17 -812.48,298.23 -813.62,298.01 -815.22,298.51"/>
    </edge>
    <edge id=":mc_11" function="internal">
        <lane id=":mc_11_0" index="0" speed="13.89" length="16.55" shape="-808.29,300.85 -807.74,296.02 -806.59,292.80 -805.44,289.59 -804.92,284.76"/>
        <lane id=":mc_11_1" index="1" speed="13.89" length="16.55" shape="-804.99,300.87 -804.44,296.04 -803.29,292.81 -802.14,289.59 -801.62,284.76"/>
    </edge>
    <edge id=":mc_13" function="internal">
        <lane id=":mc_13_0" index="0" speed="13.89" length="10.24" shape="-801.69,300.89 -800.64,295.18 -797.96,291.64"/>
    </edge>
    <edge id=":mc_17" function="internal">
        <lane id=":mc_17_0" index="0" speed="13.89" length="13.50" shape="-797.96,291.64 -797.56,291.11 -792.45,288.67 -785.32,287.87"/>
    </edge>
    <edge id=":nd_0" function="internal">
        <lane id=":nd_0_0" index="0" speed="13.89" length="16.48" shape="-818.16,-482.06 -818.35,-487.74 -818.93,-491.80 -819.90,-494.23 -821.25,-495.04"/>
        <lane id=":nd_0_1" index="1" speed="13.89" length="16.48" shape="-814.86,-482.06 -815.26,-489.19 -816.45,-494.27 -818.45,-497.32 -821.26,-498.34"/>
    </edge>
    <edge id=":nd_2" function="internal">
        <lane id=":nd_2_0" index="0" speed="13.89" length="36.61" shape="-811.56,-482.06 -810.52,-493.96 -808.26,-503.10 -805.99,-510.69 -804.97,-517.95"/>
        <lane id=":nd_2_1" index="1" speed="13.89" length="36.61" shape="-808.26,-482.06 -807.22,-493.96 -804.96,-503.10 -802.69,-510.69 -801.67,-517.95"/>
    </edge>
    <edge id=":nd_4" function="internal">
        <lane id=":nd_4_0" index="0" speed="13.89" length="16.91" shape="-804.96,-482.06 -803.73,-492.07 -800.05,-499.23 -797.85,-500.77"/>
        <lane id=":nd_4_1" index="1" speed="13.89" length="16.91" shape="-801.66,-482.06 -800.64,-490.63 -798.69,-494.53"/>
    </edge>
    <edge id=":nd_21" function="internal">
        <lane id=":nd_21_0" index="0" speed="13.89" length="13.48" shape="-797.85,-500.77 -793.93,-503.52 -785.36,-504.95"/>
    </edge>
    <edge id=":nd_22" function="internal">
        <lane id=":nd_22_0" index="0" speed="13.89" length="16.00" shape="-798.69,-494.53 -797.58,-496.75 -792.48,-500.43 -785.36,-501.65"/>
    </edge>
    <edge id=":nd_6" function="internal">
        <lane id=":nd_6_0" index="0" speed="13.89" length="10.89" shape="-785.35,-485.15 -789.60,-484.96 -792.63,-484.38 -794.45,-483.41 -795.06,-482.05"/>
    </edge>
    <edge id=":nd_7" function="internal">
        <lane id=":nd_7_0" index="0" speed="13.89" length="36.63" shape="-785.35,-488.45 -797.25,-489.48 -806.40,-491.75 -813.99,-494.01 -821.25,-495.04"/>
        <lane id=":nd_7_1" index="1" speed="13.89" length="36.63" shape="-785.35,-491.75 -797.26,-492.78 -806.40,-495.05 -813.99,-497.31 -821.26,-498.34"/>
    </edge>
    <edge id=":nd_9" function="internal">
        <lane id=":nd_9_0" index="0" speed="13.89" length="15.34" shape="-785.35,-495.05 -793.93,-496.48 -800.05,-500.78 -801.52,-503.62"/>
        <lane id=":nd_9_1" index="1" speed="13.89" length="15.34" shape="-785.35,-498.35 -792.48,-499.58 -795.79,-501.96"/>
    </edge>
    <edge id=":nd_23" function="internal">
        <lane id=":nd_23_0" index="0" speed="13.89" length="14.94" shape="-801.52,-503.62 -803.73,-507.93 -804.97,-517.95"/>
    </edge>
    <edge id=":nd_24" function="internal">
        <lane id=":nd_24_0" index="0" speed="13.89" length="17.69" shape="-795.79,-501.96 -797.58,-503.25 -800.64,-509.38 -801.67,-517.95"/>
    </edge>
    <edge id=":nd_11" function="internal">
        <lane id=":nd_11_0" index="0" speed="13.89" length="14.01" shape="-788.47,-517.97 -788.27,-512.27 -787.68,-508.21 -786.71,-505.77 -785.36,-504.95"/>
    </edge>
    <edge id=":nd_12" function="internal">
        <lane id=":nd_12_0" index="0" speed="13.89" length="36.09" shape="-791.77,-517.96 -792.27,-506.15 -793.40,-497.00 -794.54,-489.35 -795.06,-482.05"/>
        <lane id=":nd_12_1" index="1" speed="13.89" length="36.09" shape="-795.07,-517.96 -795.57,-506.15 -796.70,-497.00 -797.84,-489.35 -798.36,-482.05"/>
    </edge>
    <edge id=":nd_14" function="internal">
        <lane id=":nd_14_0" index="0" speed="13.89" length="15.73" shape="-798.37,-517.96 -799.79,-507.93 -803.75,-501.33"/>
        <lane id=":nd_14_1" index="1" speed="13.89" length="15.73" shape="-798.37,-517.96 -799.79,-509.38 -802.62,-505.34"/>
    </edge>
    <edge id=":nd_25" function="internal">
        <lane id=":nd_25_0" index="0" speed="13.89" length="19.11" shape="-803.75,-501.33 -804.08,-500.77 -811.23,-496.48 -821.25,-495.04"/>
    </edge>
    <edge id=":nd_26" function="internal">
        <lane id=":nd_26_0" index="0" speed="13.89" length="20.69" shape="-802.62,-505.34 -804.08,-503.25 -811.23,-499.57 -821.26,-498.34"/>
    </edge>
    <edge id=":nd_16" function="internal">
        <lane id=":nd_16_0" index="0" speed="13.89" length="17.16" shape="-821.26,-514.84 -814.13,-515.04 -809.04,-515.62 -805.99,-516.59 -804.97,-517.95"/>
    </edge>
    <edge id=":nd_17" function="internal">
        <lane id=":nd_17_0" index="0" speed="13.89" length="36.63" shape="-821.26,-511.54 -809.36,-510.51 -800.21,-508.25 -792.62,-505.98 -785.36,-504.95"/>
        <lane id=":nd_17_1" index="1" speed="13.89" length="36.63" shape="-821.26,-508.24 -809.36,-507.21 -800.21,-504.95 -792.62,-502.68 -785.36,-501.65"/>
    </edge>
    <edge id=":nd_19" function="internal">
        <lane id=":nd_19_0" index="0" speed="13.89" length="22.65" shape="-821.26,-504.94 -809.79,-503.51 -801.60,-499.22 -798.53,-494.75"/>
        <lane id=":nd_19_1" index="1" speed="13.89" length="22.65" shape="-821.26,-501.64 -811.24,-500.42 -804.08,-496.75 -803.55,-495.99"/>
    </edge>
    <edge id=":nd_27" function="internal">
        <lane id=":nd_27_0" index="0" speed="13.89" length="13.39" shape="-798.53,-494.75 -796.69,-492.07 -795.06,-482.05"/>
    </edge>
    <edge id=":nd_28" function="internal">
        <lane id=":nd_28_0" index="0" speed="13.89" length="15.24" shape="-803.55,-495.99 -799.79,-490.63 -798.36,-482.05"/>
    </edge>
    <edge id=":st_0" function="internal">
        <lane id=":st_0_0" index="0" speed="13.89" length="13.35" shape="-808.25,-195.25 -807.73,-199.11 -806.60,-201.65 -805.47,-204.19 -804.96,-208.05"/>
        <lane id=":st_0_1" index="1" speed="13.89" length="13.35" shape="-804.95,-195.25 -804.43,-199.11 -803.30,-201.65 -802.17,-204.20 -801.66,-208.06"/>
    </edge>
    <edge id=":st_2" function="internal">
        <lane id=":st_2_0" index="0" speed="13.89" length="4.06" shape="-801.65,-195.25 -800.84,-198.05 -799.95,-198.78"/>
    </edge>
    <edge id=":st_11" function="internal">
        <lane id=":st_11_0" index="0" speed="13.89" length="11.94" shape="-799.95,-198.78 -798.40,-200.05 -794.34,-201.25 -788.65,-201.65"/>
    </edge>
    <edge id=":st_3" function="internal">
        <lane id=":st_3_0" index="0" speed="13.89" length="7.84" shape="-788.65,-198.35 -791.45,-198.16 -793.45,-197.58 -794.65,-196.61 -795.05,-195.25"/>
    </edge>
    <edge id=":st_4" function="internal">
        <lane id=":st_4_0" index="0" speed="13.89" length="11.20" shape="-788.65,-198.35 -794.34,-198.96 -798.40,-200.78 -799.05,-201.58"/>
    </edge>
    <edge id=":st_12" function="internal">
        <lane id=":st_12_0" index="0" speed="13.89" length="7.18" shape="-799.05,-201.58 -800.84,-203.81 -801.66,-208.06"/>
    </edge>
    <edge id=":st_5" function="internal">
        <lane id=":st_5_0" index="0" speed="13.89" length="7.86" shape="-791.76,-208.07 -791.56,-205.26 -790.98,-203.26 -790.01,-202.05 -788.65,-201.65"/>
    </edge>
    <edge id=":st_6" function="internal">
        <lane id=":st_6_0" index="0" speed="13.89" length="12.81" shape="-795.06,-208.07 -795.05,-195.25"/>
        <lane id=":st_6_1" index="1" speed="13.89" length="12.81" shape="-798.36,-208.06 -798.35,-195.25"/>
    </edge>
    <edge id=":st_8" function="internal">
        <lane id=":st_8_0" index="0" speed="13.89" length="7.27" shape="-810.55,-206.61 -808.10,-205.75 -806.36,-205.70 -805.31,-206.47 -804.96,-208.05"/>
    </edge>
    <edge id=":st_9" function="internal">
        <lane id=":st_9_0" index="0" speed="13.89" length="22.53" shape="-810.55,-206.61 -805.91,-204.96 -799.77,-203.35 -793.55,-202.14 -788.65,-201.65"/>
    </edge>
    <edge id=":st_10" function="internal">
        <lane id=":st_10_0" index="0" speed="13.89" length="17.42" shape="-810.55,-206.61 -805.21,-203.82 -801.40,-201.00 -799.11,-198.14 -798.35,-195.25"/>
    </edge>

    <edge id="-gneE12" from="gneJ18" to="gneJ11" priority="1">
        <lane id="-gneE12_0" index="0" speed="13.89" length="342.67" shape="-795.05,-98.50 -795.01,244.17"/>
        <lane id="-gneE12_1" index="1" speed="13.89" length="342.67" shape="-798.35,-98.50 -798.31,244.17"/>
    </edge>
    <edge id="-gneE29" from="gneJ36" to="south_end" priority="1">
        <lane id="-gneE29_0" index="0" speed="13.89" length="311.50" shape="-805.04,-588.50 -804.95,-900.00"/>
        <lane id="-gneE29_1" index="1" speed="13.89" length="311.50" shape="-801.74,-588.50 -801.65,-900.00"/>
    </edge>
    <edge id="-gneE3" from="gneJ5" to="hr_south" priority="1">
        <lane id="-gneE3_0" index="0" speed="13.89" length="342.25" shape="-795.40,356.24 -795.05,698.50"/>
        <lane id="-gneE3_1" index="1" speed="13.89" length="342.25" shape="-798.70,356.25 -798.35,698.50"/>
    </edge>
    <edge id="-gneE30" from="gneJ38" to="gneJ40" priority="1">
        <lane id="-gneE30_0" index="0" speed="13.89" length="237.89" shape="-737.89,-504.97 -500.00,-504.95"/>
        <lane id="-gneE30_1" index="1" speed="13.89" length="237.89" shape="-737.89,-501.67 -500.00,-501.65"/>
    </edge>
    <edge id="-gneE31" from="gneJ37" to="gneJ41" priority="1">
        <lane id="-gneE31_0" index="0" speed="13.89" length="177.51" shape="-922.49,-491.70 -1100.00,-491.75"/>
        <lane id="-gneE31_1" index="1" speed="13.89" length="177.51" shape="-922.49,-495.00 -1100.00,-495.05"/>
        <lane id="-gneE31_2" index="2" speed="13.89" length="177.51" shape="-922.49,-498.30 -1100.00,-498.35"/>
    </edge>
    <edge id="gneE12" from="gneJ11" to="gneJ18" priority="1">
        <lane id="gneE12_0" index="0" speed="13.89" length="342.67" shape="-804.91,244.17 -804.95,-98.50"/>
        <lane id="gneE12_1" index="1" speed="13.89" length="342.67" shape="-801.61,244.17 -801.65,-98.50"/>
    </edge>
    <edge id="gneE3" from="hr_south" to="gneJ5" priority="1">
        <lane id="gneE3_0" index="0" speed="13.89" length="342.25" shape="-804.95,698.51 -805.30,356.25"/>
        <lane id="gneE3_1" index="1" speed="13.89" length="342.25" shape="-801.65,698.50 -802.00,356.25"/>
    </edge>
    <edge id="gneE30" from="gneJ40" to="gneJ38" priority="1">
        <lane id="gneE30_0" index="0" speed="13.89" length="237.89" shape="-500.00,-495.05 -737.89,-495.07"/>
        <lane id="gneE30_1" index="1" speed="13.89" length="237.89" shape="-500.00,-498.35 -737.89,-498.37"/>
    </edge>
    <edge id="gneE31" from="gneJ41" to="gneJ37" priority="1">
        <lane id="gneE31_0" index="0" speed="13.89" length="177.51" shape="-1100.00,-508.25 -922.49,-508.20"/>
        <lane id="gneE31_1" index="1" speed="13.89" length="177.51" shape="-1100.00,-504.95 -922.49,-504.90"/>
        <lane id="gneE31_2" index="2" speed="13.89" length="177.51" shape="-1100.00,-501.65 -922.49,-501.60"/>
    </edge>
    <edge id="hr_east_in" from="hr_east" to="hr" priority="1">
        <lane id="hr_east_in_0" index="0" speed="13.89" length="285.35" shape="-500.00,814.85 -785.35,814.85"/>
        <lane id="hr_east_in_1" index="1" speed="13.89" length="285.35" shape="-500.00,811.55 -785.35,811.55"/>
        <lane id="hr_east_in_2" index="2" speed="13.89" length="285.35" shape="-500.00,808.25 -785.35,808.25"/>
        <lane id="hr_east_in_3" index="3" speed="13.89" length="285.35" shape="-500.00,804.95 -785.35,804.95"/>
        <lane id="hr_east_in_4" index="4" speed="13.89" length="285.35" shape="-500.00,801.65 -785.35,801.65"/>
    </edge>
    <edge id="hr_east_out" from="hr" to="hr_east" priority="1">
        <lane id="hr_east_out_0" index="0" speed="13.89" length="285.35" shape="-785.35,795.05 -500.00,795.05"/>
        <lane id="hr_east_out_1" index="1" speed="13.89" length="285.35" shape="-785.35,798.35 -500.00,798.35"/>
    </edge>
    <edge id="hr_north_in" from="hr_north" to="hr" priority="1">
        <lane id="hr_north_in_0" index="0" speed="13.89" length="182.05" shape="-814.85,1000.00 -814.85,817.95"/>
        <lane id="hr_north_in_1" index="1" speed="13.89" length="182.05" shape="-811.55,1000.00 -811.55,817.95"/>
        <lane id="hr_north_in_2" index="2" speed="13.89" length="182.05" shape="-808.25,1000.00 -808.25,817.95"/>
        <lane id="hr_north_in_3" index="3" speed="13.89" length="182.05" shape="-804.95,1000.00 -804.95,817.95"/>
        <lane id="hr_north_in_4" index="4" speed="13.89" length="182.05" shape="-801.65,1000.00 -801.65,817.95"/>
    </edge>
    <edge id="hr_north_out" from="hr" to="hr_north" priority="1">
        <lane id="hr_north_out_0" index="0" speed="13.89" length="182.05" shape="-791.75,817.95 -791.75,1000.00"/>
        <lane id="hr_north_out_1" index="1" speed="13.89" length="182.05" shape="-795.05,817.95 -795.05,1000.00"/>
        <lane id="hr_north_out_2" index="2" speed="13.89" length="182.05" shape="-798.35,817.95 -798.35,1000.00"/>
    </edge>
    <edge id="hr_south_in" from="hr_south" to="hr" priority="1">
        <lane id="hr_south_in_0" index="0" speed="13.89" length="80.55" shape="-788.45,701.50 -788.45,782.05"/>
        <lane id="hr_south_in_1" index="1" speed="13.89" length="80.55" shape="-791.75,701.50 -791.75,782.05"/>
        <lane id="hr_south_in_2" index="2" speed="13.89" length="80.55" shape="-795.05,701.50 -795.05,782.05"/>
        <lane id="hr_south_in_3" index="3" speed="13.89" length="80.55" shape="-798.35,701.50 -798.35,782.05"/>
    </edge>
    <edge id="hr_south_out" from="hr" to="hr_south" priority="1">
        <lane id="hr_south_out_0" index="0" speed="13.89" length="80.55" shape="-804.95,782.05 -804.95,701.50"/>
        <lane id="hr_south_out_1" index="1" speed="13.89" length="80.55" shape="-801.65,782.05 -801.65,701.50"/>
    </edge>
    <edge id="hr_west_in" from="hr_west" to="hr" priority="1">
        <lane id="hr_west_in_0" index="0" speed="13.89" length="282.05" shape="-1100.00,785.15 -817.95,785.15"/>