<?xml version="1.0" encoding="UTF-8"?>

<!-- generated on Thu Sep 21 16:04:19 2017 by SUMO duarouter Version 0.30.0
<?xml version="1.0" encoding="UTF-8"?>

<configuration xmlns:xsi="http://www.w3.org/2001/XMLSchema-instance" xsi:noNamespaceSchemaLocation="http://sumo.dlr.de/xsd/duarouterConfiguration.xsd">

    <input>
        <net-file value="/Users/phj/GitRepos/baselines_fork/baselines/deepq/experiments/traci/scenarios/3_cross/randersvej.net.xml"/>
        <additional-files value="/Users/phj/GitRepos/baselines_fork/baselines/deepq/experiments/traci/scenarios/3_cross/randersvej.det.xml"/>
        <trip-files value="/var/folders/6d/qwp3dfvx0r9d_kfqhfvbvl8m0000gn/T/tmp8p07elsm"/>
    </input>

    <output>
        <output-file value="/Users/phj/GitRepos/baselines_fork/baselines/deepq/experiments/traci/scenarios/3_cross/randersvej.rou.xml"/>
    </output>

    <processing>
        <repair value="true"/>
    </processing>

</configuration>
-->

<routes xmlns:xsi="http://www.w3.org/2001/XMLSchema-instance" xsi:noNamespaceSchemaLocation="http://sumo.dlr.de/xsd/routes_file.xsd">
    <vType id="carType" length="5.00" minGap="2.50" maxSpeed="16.67" guiShape="passenger">
        <carFollowing-Krauss accel="0.8" decel="4.5" sigma="0.5"/>
    </vType>
    <vehicle id="0" type="carType" depart="0.00">
        <route edges="Fs st_north_out -gneE12 mc_south_in Ee"/>
    </vehicle>
    <vehicle id="1" type="carType" depart="1.00">
        <route edges="Cs hr_south_out gneE3 mc_north_in mc_south_out gneE12 st_north_in st_south_out nd_north_in nd_south_out Je"/>
    </vehicle>
    <vehicle id="2" type="carType" depart="2.00">
        <route edges="Cs hr_south_out gneE3 mc_north_in De"/>
    </vehicle>
    <vehicle id="3" type="carType" depart="3.00">
        <route edges="Bs hr_south_out gneE3 mc_north_in mc_south_out gneE12 st_north_in st_south_out nd_north_in nd_west_out He"/>
    </vehicle>
    <vehicle id="4" type="carType" depart="4.00">
        <route edges="Gs st_north_out -gneE12 mc_south_in mc_north_out -gneE3 hr_south_in Be"/>
    </vehicle>
    <vehicle id="5" type="carType" depart="5.00">
        <route edges="As Be"/>
    </vehicle>
    <vehicle id="6" type="carType" depart="6.00">
        <route edges="Ds mc_south_out gneE12 st_north_in st_south_out nd_north_in nd_east_out Ie"/>
    </vehicle>
    <vehicle id="7" type="carType" depart="7.00">
        <route edges="Fs st_south_out nd_north_in nd_east_out Ie"/>
    </vehicle>
    <vehicle id="8" type="carType" depart="8.00">
        <route edges="Es mc_north_out -gneE3 hr_south_in Ce"/>
    </vehicle>
    <vehicle id="9" type="carType" depart="9.00">
        <route edges="Bs Ce"/>
    </vehicle>
    <vehicle id="10" type="carType" depart="10.00">
        <route edges="Bs hr_south_out gneE3 mc_north_in mc_south_out gneE12 st_north_in st_south_out nd_north_in nd_east_out Ie"/>
    </vehicle>
    <vehicle id="11" type="carType" depart="11.00">
        <route edges="Fs st_north_out -gneE12 mc_south_in Ee"/>
    </vehicle>
    <vehicle id="12" type="carType" depart="12.00">
        <route edges="Ds mc_north_out -gneE3 hr_south_in Ce"/>
    </vehicle>
    <vehicle id="13" type="carType" depart="13.00">
        <route edges="As hr_south_out gneE3 mc_north_in mc_south_out gneE12 st_north_in st_south_out nd_north_in nd_west_out He"/>
    </vehicle>
    <vehicle id="14" type="carType" depart="14.00">
        <route edges="Fs Ge"/>
    </vehicle>
    <vehicle id="15" type="carType" depart="15.00">
        <route edges="Js nd_south_in nd_north_out st_south_in st_north_out -gneE12 mc_south_in De"/>
    </vehicle>
    <vehicle id="16" type="carType" depart="16.00">
        <route edges="Fs st_south_out nd_north_in nd_south_out Je"/>
    </vehicle>
    <vehicle id="17" type="carType" depart="17.00">
        <route edges="Hs nd_west_in nd_north_out st_south_in st_north_out -gneE12 mc_south_in mc_north_out -gneE3 hr_south_in Be"/>
    </vehicle>
    <vehicle id="18" type="carType" depart="18.00">
        <route edges="Ds mc_south_out gneE12 st_north_in st_south_out nd_north_in nd_west_out He"/>
    </vehicle>
    <vehicle id="19" type="carType" depart="19.00">
        <route edges="Is nd_east_in nd_north_out st_south_in st_north_out -gneE12 mc_south_in mc_north_out -gneE3 hr_south_in Be"/>
    </vehicle>
    <vehicle id="20" type="carType" depart="20.00">
        <route edges="Cs hr_south_out gneE3 mc_north_in De"/>
    </vehicle>
    <vehicle id="21" type="carType" depart="21.00">
        <route edges="Is nd_east_in nd_north_out st_south_in st_north_out -gneE12 mc_south_in Ee"/>
    </vehicle>
    <vehicle id="22" type="carType" depart="22.00">
        <route edges="Fs st_north_out -gneE12 mc_south_in mc_north_out -gneE3 hr_south_in Be"/>
    </vehicle>
    <vehicle id="23" type="carType" depart="23.00">
        <route edges="Fs st_north_out -gneE12 mc_south_in Ee"/>
    </vehicle>
    <vehicle id="24" type="carType" depart="24.00">
        <route edges="Ds mc_north_out -gneE3 hr_south_in Be"/>
    </vehicle>
    <vehicle id="25" type="carType" depart="25.00">
        <route edges="Bs hr_south_out gneE3 mc_north_in Ee"/>
    </vehicle>
    <vehicle id="26" type="carType" depart="26.00">
        <route edges="Ds mc_south_out gneE12 st_north_in st_south_out nd_north_in nd_east_out Ie"/>
    </vehicle>
    <vehicle id="27" type="carType" depart="27.00">
        <route edges="Bs hr_south_out gneE3 mc_north_in Ee"/>
    </vehicle>
    <vehicle id="28" type="carType" depart="28.00">
        <route edges="Bs Ce"/>
    </vehicle>
    <vehicle id="29" type="carType" depart="29.00">
        <route edges="Cs hr_south_out gneE3 mc_north_in mc_south_out gneE12 st_north_in Ge"/>
    </vehicle>
    <vehicle id="30" type="carType" depart="30.00">
        <route edges="Gs st_north_out -gneE12 mc_south_in mc_north_out -gneE3 hr_south_in Ae"/>
    </vehicle>
    <vehicle id="31" type="carType" depart="31.00">
        <route edges="As hr_south_out gneE3 mc_north_in mc_south_out gneE12 st_north_in st_south_out nd_north_in nd_south_out Je"/>
    </vehicle>
    <vehicle id="32" type="carType" depart="32.00">
        <route edges="As hr_south_out gneE3 mc_north_in mc_south_out gneE12 st_north_in Ge"/>
    </vehicle>
    <vehicle id="33" type="carType" depart="33.00">
        <route edges="As hr_south_out gneE3 mc_north_in De"/>
    </vehicle>
    <vehicle id="34" type="carType" depart="34.00">
        <route edges="Es mc_south_out gneE12 st_north_in st_south_out nd_north_in nd_east_out Ie"/>
    </vehicle>
    <vehicle id="35" type="carType" depart="35.00">
        <route edges="Hs nd_west_in nd_north_out st_south_in st_north_out -gneE12 mc_south_in Ee"/>
    </vehicle>
    <vehicle id="36" type="carType" depart="36.00">
        <route edges="Hs nd_west_in nd_north_out st_south_in st_north_out -gneE12 mc_south_in Ee"/>
    </vehicle>
    <vehicle id="37" type="carType" depart="37.00">
        <route edges="Gs st_south_out nd_north_in nd_east_out Ie"/>
    </vehicle>
    <vehicle id="38" type="carType" depart="38.00">
        <route edges="Ds mc_north_out -gneE3 hr_south_in Ce"/>
    </vehicle>
    <vehicle id="39" type="carType" depart="39.00">
        <route edges="Cs hr_south_out gneE3 mc_north_in mc_south_out gneE12 st_north_in st_south_out nd_north_in nd_south_out Je"/>
    </vehicle>
    <vehicle id="40" type="carType" depart="40.00">
        <route edges="Bs hr_south_out gneE3 mc_north_in mc_south_out gneE12 st_north_in Ge"/>
    </vehicle>
    <vehicle id="41" type="carType" depart="41.00">
        <route edges="Fs Ge"/>
    </vehicle>
    <vehicle id="42" type="carType" depart="42.00">
        <route edges="Ds mc_south_out gneE12 st_north_in st_south_out nd_north_in nd_east_out Ie"/>
    </vehicle>
    <vehicle id="43" type="carType" depart="43.00">
        <route edges="Is nd_east_in nd_west_out He"/>
    </vehicle>
    <vehicle id="44" type="carType" depart="44.00">
        <route edges="Ds mc_south_out gneE12 st_north_in Ge"/>
    </vehicle>
    <vehicle id="45" type="carType" depart="45.00">
        <route edges="Hs nd_west_in nd_east_out Ie"/>
    </vehicle>
    <vehicle id="46" type="carType" depart="46.00">
        <route edges="Ds Ee"/>
    </vehicle>
    <vehicle id="47" type="carType" depart="47.00">
        <route edges="Es mc_south_out gneE12 st_north_in st_south_out nd_north_in nd_west_out He"/>
    </vehicle>
    <vehicle id="48" type="carType" depart="48.00">
        <route edges="Is nd_east_in nd_north_out st_south_in st_north_out -gneE12 mc_south_in mc_north_out -gneE3 hr_south_in Be"/>
    </vehicle>
    <vehicle id="49" type="carType" depart="49.00">
        <route edges="Hs nd_west_in nd_north_out st_south_in st_north_out -gneE12 mc_south_in mc_north_out -gneE3 hr_south_in Ce"/>
    </vehicle>
    <vehicle id="50" type="carType" depart="50.00">
        <route edges="Bs hr_south_out gneE3 mc_north_in Ee"/>
    </vehicle>
    <vehicle id="51" type="carType" depart="51.00">
        <route edges="Hs nd_west_in nd_east_out Ie"/>
    </vehicle>
    <vehicle id="52" type="carType" depart="52.00">
        <route edges="As hr_south_out gneE3 mc_north_in mc_south_out gneE12 st_north_in st_south_out nd_north_in nd_south_out Je"/>
    </vehicle>
    <vehicle id="53" type="carType" depart="53.00">
        <route edges="Hs nd_west_in nd_north_out st_south_in st_north_out -gneE12 mc_south_in De"/>
    </vehicle>
    <vehicle id="54" type="carType" depart="54.00">
        <route edges="As Be"/>
    </vehicle>
    <vehicle id="55" type="carType" depart="55.00">
        <route edges="Js nd_south_in nd_north_out st_south_in st_north_out -gneE12 mc_south_in mc_north_out -gneE3 hr_south_in Ae"/>
    </vehicle>
    <vehicle id="56" type="carType" depart="56.00">
        <route edges="Hs nd_west_in nd_north_out st_south_in st_north_out -gneE12 mc_south_in mc_north_out -gneE3 hr_south_in Ce"/>
    </vehicle>
    <vehicle id="57" type="carType" depart="57.00">
        <route edges="Fs st_south_out nd_north_in nd_east_out Ie"/>
    </vehicle>
    <vehicle id="58" type="carType" depart="58.00">
        <route edges="Ds mc_south_out gneE12 st_north_in Ge"/>
    </vehicle>
    <vehicle id="59" type="carType" depart="59.00">
        <route edges="Bs Ce"/>
    </vehicle>
    <vehicle id="60" type="carType" depart="60.00">
        <route edges="Is nd_east_in nd_north_out st_south_in st_north_out -gneE12 mc_south_in mc_north_out -gneE3 hr_south_in Ae"/>
    </vehicle>
    <vehicle id="61" type="carType" depart="61.00">
        <route edges="Cs hr_south_out gneE3 mc_north_in De"/>
    </vehicle>
    <vehicle id="62" type="carType" depart="62.00">
        <route edges="Is nd_east_in nd_north_out st_south_in st_north_out -gneE12 mc_south_in mc_north_out -gneE3 hr_south_in Be"/>
    </vehicle>
    <vehicle id="63" type="carType" depart="63.00">
        <route edges="Is nd_east_in nd_north_out st_south_in st_north_out -gneE12 mc_south_in mc_north_out -gneE3 hr_south_in Be"/>
    </vehicle>
    <vehicle id="64" type="carType" depart="64.00">
        <route edges="Js nd_south_in nd_north_out st_south_in st_north_out -gneE12 mc_south_in mc_north_out -gneE3 hr_south_in Ae"/>
    </vehicle>
    <vehicle id="65" type="carType" depart="65.00">
        <route edges="Is nd_east_in nd_north_out st_south_in st_north_out -gneE12 mc_south_in Ee"/>
    </vehicle>
    <vehicle id="66" type="carType" depart="66.00">
        <route edges="Bs hr_south_out gneE3 mc_north_in mc_south_out gneE12 st_north_in st_south_out nd_north_in nd_south_out Je"/>
    </vehicle>
    <vehicle id="67" type="carType" depart="67.00">
        <route edges="Gs st_south_out nd_north_in nd_south_out Je"/>
    </vehicle>
    <vehicle id="68" type="carType" depart="68.00">
        <route edges="Fs st_south_out nd_north_in nd_east_out Ie"/>
    </vehicle>
    <vehicle id="69" type="carType" depart="69.00">
        <route edges="Fs Ge"/>
    </vehicle>
    <vehicle id="70" type="carType" depart="70.00">
        <route edges="Bs hr_south_out gneE3 mc_north_in mc_south_out gneE12 st_north_in st_south_out nd_north_in nd_east_out Ie"/>
    </vehicle>
    <vehicle id="71" type="carType" depart="71.00">
        <route edges="Bs Ce"/>
    </vehicle>
    <vehicle id="72" type="carType" depart="72.00">
        <route edges="Es mc_north_out -gneE3 hr_south_in Ae"/>
    </vehicle>
    <vehicle id="73" type="carType" depart="73.00">
        <route edges="Es mc_south_out gneE12 st_north_in Ge"/>
    </vehicle>
    <vehicle id="74" type="carType" depart="74.00">
        <route edges="Is nd_east_in nd_north_out st_south_in st_north_out -gneE12 mc_south_in De"/>
    </vehicle>
    <vehicle id="75" type="carType" depart="75.00">
        <route edges="Bs hr_south_out gneE3 mc_north_in mc_south_out gneE12 st_north_in st_south_out nd_north_in nd_south_out Je"/>
    </vehicle>
    <vehicle id="76" type="carType" depart="76.00">
        <route edges="Bs hr_south_out gneE3 mc_north_in De"/>
    </vehicle>
    <vehicle id="77" type="carType" depart="77.00">
        <route edges="Hs nd_west_in nd_north_out st_south_in Ge"/>
    </vehicle>
    <vehicle id="78" type="carType" depart="78.00">
        <route edges="Js nd_south_in nd_north_out st_south_in st_north_out -gneE12 mc_south_in mc_north_out -gneE3 hr_south_in Ae"/>
    </vehicle>
    <vehicle id="79" type="carType" depart="79.00">
        <route edges="Fs st_south_out nd_north_in nd_west_out He"/>
    </vehicle>
    <vehicle id="80" type="carType" depart="80.00">
        <route edges="Ds mc_north_out -gneE3 hr_south_in Ae"/>
    </vehicle>
    <vehicle id="81" type="carType" depart="81.00">
        <route edges="Cs hr_south_out gneE3 mc_north_in mc_south_out gneE12 st_north_in st_south_out nd_north_in nd_east_out Ie"/>
    </vehicle>
    <vehicle id="82" type="carType" depart="82.00">
        <route edges="Cs hr_south_out gneE3 mc_north_in Ee"/>
    </vehicle>
    <vehicle id="83" type="carType" depart="83.00">
        <route edges="Es mc_north_out -gneE3 hr_south_in Ce"/>
    </vehicle>
    <vehicle id="84" type="carType" depart="84.00">
        <route edges="Hs nd_west_in nd_east_out Ie"/>
    </vehicle>
    <vehicle id="85" type="carType" depart="85.00">
        <route edges="Bs Ae"/>
    </vehicle>
    <vehicle id="86" type="carType" depart="86.00">
        <route edges="Es mc_north_out -gneE3 hr_south_in Ce"/>
    </vehicle>
    <vehicle id="87" type="carType" depart="87.00">
        <route edges="Gs st_south_out nd_north_in nd_west_out He"/>
    </vehicle>
    <vehicle id="88" type="carType" depart="88.00">
        <route edges="Bs hr_south_out gneE3 mc_north_in mc_south_out gneE12 st_north_in Ge"/>
    </vehicle>
    <vehicle id="89" type="carType" depart="89.00">
        <route edges="Cs hr_south_out gneE3 mc_north_in De"/>
    </vehicle>
    <vehicle id="90" type="carType" depart="90.00">
        <route edges="As Ce"/>
    </vehicle>
    <vehicle id="91" type="carType" depart="91.00">
        <route edges="As hr_south_out gneE3 mc_north_in Ee"/>
    </vehicle>
    <vehicle id="92" type="carType" depart="92.00">
        <route edges="Js nd_south_in nd_west_out He"/>
    </vehicle>
    <vehicle id="93" type="carType" depart="93.00">
        <route edges="Bs hr_south_out gneE3 mc_north_in mc_south_out gneE12 st_north_in st_south_out nd_north_in nd_east_out Ie"/>
    </vehicle>
    <vehicle id="94" type="carType" depart="94.00">
        <route edges="Es mc_south_out gneE12 st_north_in st_south_out nd_north_in nd_south_out Je"/>
    </vehicle>
    <vehicle id="95" type="carType" depart="95.00">
        <route edges="Bs Ae"/>
    </vehicle>
    <vehicle id="96" type="carType" depart="96.00">
        <route edges="Gs st_north_out -gneE12 mc_south_in mc_north_out -gneE3 hr_south_in Ce"/>
    </vehicle>
    <vehicle id="97" type="carType" depart="97.00">
        <route edges="Ds mc_south_out gneE12 st_north_in st_south_out nd_north_in nd_south_out Je"/>
    </vehicle>
    <vehicle id="98" type="carType" depart="98.00">
        <route edges="Hs nd_west_in nd_south_out Je"/>
    </vehicle>
    <vehicle id="99" type="carType" depart="99.00">
        <route edges="Es mc_south_out gneE12 st_north_in st_south_out nd_north_in nd_south_out Je"/>
    </vehicle>
</routes>
