<?xml version="1.0"?>
<!-- generated on 2017-09-19 15:49:42.116381 by $Id$
  options: -n hasle_randers.net.xml
-->
<routes xmlns:xsi="http://www.w3.org/2001/XMLSchema-instance" xsi:noNamespaceSchemaLocation="http://sumo.dlr.de/xsd/routes_file.xsd">
    <trip id="0" depart="0.00" from="hr_east_in" to="hr_south_out"/>
    <trip id="1" depart="1.00" from="hr_south_in" to="hr_north_out"/>
    <trip id="2" depart="2.00" from="hr_north_in" to="hr_west_out"/>
    <trip id="3" depart="3.00" from="hr_west_in" to="hr_south_out"/>
    <trip id="4" depart="4.00" from="hr_north_in" to="hr_west_out"/>
    <trip id="5" depart="5.00" from="hr_south_in" to="hr_east_out"/>
    <trip id="6" depart="6.00" from="hr_east_in" to="hr_north_out"/>
    <trip id="7" depart="7.00" from="hr_north_in" to="hr_east_out"/>
    
</routes>
