<?xml version="1.0" encoding="UTF-8"?>
<additional>
    <tlLogic id="gneJ24" type="static" programID="c" offset="0">
        <phase duration="40" state="GGgrrGGGrrr"/>
        <phase duration="3" state="yygrryyyrrr"/>
        <phase duration="39" state="rrGrrrrrrrr"/>
        <phase duration="3" state="rryrrrrrrrr"/>
        <phase duration="4" state="rrrGgrrrGGg"/>
        <phase duration="3" state="rrrygrrryyg"/>
        <phase duration="4" state="rrrrGrrrrrG"/>
        <phase duration="3" state="rrrryrrrrry"/>
    </tlLogic>
    <tlLogic id="gneJ28" type="static" programID="c" offset="0">
        <phase duration="41" state="GGGGggrrrrrGGGggrrrrr"/>
        <phase duration="3" state="yyyyggrrrrryyyggrrrrr"/>
        <phase duration="16" state="rrrrGGrrrrrrrrGGrrrrr"/>
        <phase duration="3" state="rrrryyrrrrrrrryyrrrrr"/>
        <phase duration="41" state="rrrrrrGGGggrrrrrGGGgg"/>
        <phase duration="3" state="rrrrrryyyggrrrrryyygg"/>
        <phase duration="6" state="rrrrrrrrrGGrrrrrrrrGG"/>
        <phase duration="3" state="rrrrrrrrryyrrrrrrrryy"/>
    </tlLogic>
    <tlLogic id="hr_junction" type="static" programID="c" offset="0">
        <phase duration="33" state="rrrrrrGGGggrrrrrGGGgg"/>
        <phase duration="3" state="rrrrrryyyggrrrrryyygg"/>
        <phase duration="6" state="rrrrrrrrrGGrrrrrrrrGG"/>
        <phase duration="3" state="rrrrrrrrryyrrrrrrrryy"/>
        <phase duration="25" state="GGGGggrrrrrGGGggrrrrr"/>
        <phase duration="3" state="yyyyggrrrrryyyggrrrrr"/>
        <phase duration="8" state="rrrrGGrrrrrrrrGGrrrrr"/>
        <phase duration="3" state="rrrryyrrrrrrrryyrrrrr"/>
    </tlLogic>
    <tlLogic id="mc" type="static" programID="c" offset="0">
        <phase duration="25" state="rrrGGGgrrrGGGg"/>
        <phase duration="3" state="rrryyygrrryyyg"/>
        <phase duration="8" state="rrrrrrGrrrrrrG"/>
        <phase duration="3" state="rrrrrryrrrrrry"/>
        <phase duration="4" state="GGgrrrrGGgrrrr"/>
        <phase duration="3" state="yygrrrryygrrrr"/>
        <phase duration="4" state="rrGrrrrrrGrrrr"/>
        <phase duration="3" state="rryrrrrrryrrrr"/>
    </tlLogic>
</additional>
