<?xml version="1.0" encoding="UTF-8"?>
<additional>
    <tlLogic id="a" type="static" programID="a" offset="0">
        <phase duration="11" state="GGgrrrGGgrrr"/>
        <phase duration="3" state="yyyrrryyyrrr"/>
        <phase duration="11" state="rrrGGgrrrGGg"/>
        <phase duration="3" state="rrryyyrrryyy"/>
    </tlLogic>
    <tlLogic id="b" type="static" programID="a" offset="0">
        <phase duration="11" state="rrrGGgrrrGGg"/>
        <phase duration="3" state="rrryyyrrryyy"/>
        <phase duration="11" state="GGgrrrGGgrrr"/>
        <phase duration="3" state="yyyrrryyyrrr"/>
    </tlLogic>
</additional>
