<routes>
            <vType id="typeWE" accel="0.8" decel="4.5" sigma="0.5" length="5" minGap="2.5" maxSpeed="16.67" guiShape="passenger"/>
            <vType id="typeNS" accel="0.8" decel="4.5" sigma="0.5" length="7" minGap="3" maxSpeed="25" guiShape="bus"/>
            <route id="right" edges="51o 1i 2o 52i" />
            <route id="left" edges="52o 2i 1o 51i" />
            <route id="up" edges="53o 3i 4o 54i" />
            <route id="down" edges="54o 4i 3o 53i" />
    <vehicle id="right_0" type="typeWE" route="right" depart="1" />
    <vehicle id="down_1" type="typeNS" route="down" depart="2" color="1,0,0"/>
    <vehicle id="right_2" type="typeWE" route="right" depart="4" />
    <vehicle id="right_3" type="typeWE" route="right" depart="8" />
    <vehicle id="left_4" type="typeWE" route="left" depart="15" />
    <vehicle id="right_5" type="typeWE" route="right" depart="20" />
    <vehicle id="right_6" type="typeWE" route="right" depart="23" />
    <vehicle id="down_7" type="typeNS" route="down" depart="23" color="1,0,0"/>
    <vehicle id="right_8" type="typeWE" route="right" depart="24" />
    <vehicle id="left_9" type="typeWE" route="left" depart="24" />
    <vehicle id="up_10" type="typeNS" route="up" depart="35" color="1,0,0"/>
    <vehicle id="down_11" type="typeNS" route="down" depart="36" color="1,0,0"/>
    <vehicle id="up_12" type="typeNS" route="up" depart="36" color="1,0,0"/>
    <vehicle id="up_13" type="typeNS" route="up" depart="38" color="1,0,0"/>
    <vehicle id="up_14" type="typeNS" route="up" depart="44" color="1,0,0"/>
    <vehicle id="up_15" type="typeNS" route="up" depart="50" color="1,0,0"/>
    <vehicle id="left_16" type="typeWE" route="left" depart="53" />
    <vehicle id="left_17" type="typeWE" route="left" depart="57" />
    <vehicle id="down_18" type="typeNS" route="down" depart="57" color="1,0,0"/>
    <vehicle id="left_19" type="typeWE" route="left" depart="58" />
    <vehicle id="right_20" type="typeWE" route="right" depart="59" />
    <vehicle id="right_21" type="typeWE" route="right" depart="60" />
    <vehicle id="down_22" type="typeNS" route="down" depart="62" color="1,0,0"/>
    <vehicle id="up_23" type="typeNS" route="up" depart="63" color="1,0,0"/>
    <vehicle id="left_24" type="typeWE" route="left" depart="65" />
    <vehicle id="up_25" type="typeNS" route="up" depart="67" color="1,0,0"/>
    <vehicle id="up_26" type="typeNS" route="up" depart="70" color="1,0,0"/>
    <vehicle id="down_27" type="typeNS" route="down" depart="71" color="1,0,0"/>
    <vehicle id="up_28" type="typeNS" route="up" depart="78" color="1,0,0"/>
    <vehicle id="left_29" type="typeWE" route="left" depart="82" />
    <vehicle id="up_30" type="typeNS" route="up" depart="83" color="1,0,0"/>
    <vehicle id="left_31" type="typeWE" route="left" depart="87" />
    <vehicle id="down_32" type="typeNS" route="down" depart="89" color="1,0,0"/>
    <vehicle id="left_33" type="typeWE" route="left" depart="90" />
    <vehicle id="right_34" type="typeWE" route="right" depart="91" />
    <vehicle id="right_35" type="typeWE" route="right" depart="98" />
    <vehicle id="left_36" type="typeWE" route="left" depart="99" />
    <vehicle id="down_37" type="typeNS" route="down" depart="99" color="1,0,0"/>
    <vehicle id="left_38" type="typeWE" route="left" depart="100" />
    <vehicle id="up_39" type="typeNS" route="up" depart="100" color="1,0,0"/>
    <vehicle id="left_40" type="typeWE" route="left" depart="103" />
    <vehicle id="down_41" type="typeNS" route="down" depart="104" color="1,0,0"/>
    <vehicle id="left_42" type="typeWE" route="left" depart="108" />
    <vehicle id="up_43" type="typeNS" route="up" depart="110" color="1,0,0"/>
    <vehicle id="down_44" type="typeNS" route="down" depart="111" color="1,0,0"/>
    <vehicle id="right_45" type="typeWE" route="right" depart="113" />
    <vehicle id="right_46" type="typeWE" route="right" depart="116" />
    <vehicle id="down_47" type="typeNS" route="down" depart="117" color="1,0,0"/>
    <vehicle id="left_48" type="typeWE" route="left" depart="119" />
    <vehicle id="right_49" type="typeWE" route="right" depart="123" />
    <vehicle id="right_50" type="typeWE" route="right" depart="132" />
    <vehicle id="down_51" type="typeNS" route="down" depart="134" color="1,0,0"/>
    <vehicle id="down_52" type="typeNS" route="down" depart="138" color="1,0,0"/>
    <vehicle id="down_53" type="typeNS" route="down" depart="142" color="1,0,0"/>
    <vehicle id="up_54" type="typeNS" route="up" depart="143" color="1,0,0"/>
    <vehicle id="right_55" type="typeWE" route="right" depart="144" />
    <vehicle id="left_56" type="typeWE" route="left" depart="148" />
    <vehicle id="right_57" type="typeWE" route="right" depart="150" />
    <vehicle id="up_58" type="typeNS" route="up" depart="154" color="1,0,0"/>
    <vehicle id="right_59" type="typeWE" route="right" depart="160" />
    <vehicle id="left_60" type="typeWE" route="left" depart="170" />
    <vehicle id="right_61" type="typeWE" route="right" depart="172" />
    <vehicle id="left_62" type="typeWE" route="left" depart="177" />
    <vehicle id="left_63" type="typeWE" route="left" depart="178" />
    <vehicle id="right_64" type="typeWE" route="right" depart="181" />
    <vehicle id="right_65" type="typeWE" route="right" depart="185" />
    <vehicle id="up_66" type="typeNS" route="up" depart="188" color="1,0,0"/>
    <vehicle id="left_67" type="typeWE" route="left" depart="189" />
    <vehicle id="down_68" type="typeNS" route="down" depart="190" color="1,0,0"/>
    <vehicle id="left_69" type="typeWE" route="left" depart="191" />
    <vehicle id="right_70" type="typeWE" route="right" depart="196" />
    <vehicle id="left_71" type="typeWE" route="left" depart="197" />
    <vehicle id="right_72" type="typeWE" route="right" depart="201" />
    <vehicle id="down_73" type="typeNS" route="down" depart="207" color="1,0,0"/>
    <vehicle id="down_74" type="typeNS" route="down" depart="212" color="1,0,0"/>
    <vehicle id="up_75" type="typeNS" route="up" depart="213" color="1,0,0"/>
    <vehicle id="right_76" type="typeWE" route="right" depart="216" />
    <vehicle id="left_77" type="typeWE" route="left" depart="216" />
    <vehicle id="right_78" type="typeWE" route="right" depart="219" />
    <vehicle id="down_79" type="typeNS" route="down" depart="222" color="1,0,0"/>
    <vehicle id="down_80" type="typeNS" route="down" depart="227" color="1,0,0"/>
    <vehicle id="up_81" type="typeNS" route="up" depart="227" color="1,0,0"/>
    <vehicle id="down_82" type="typeNS" route="down" depart="230" color="1,0,0"/>
    <vehicle id="up_83" type="typeNS" route="up" depart="230" color="1,0,0"/>
    <vehicle id="left_84" type="typeWE" route="left" depart="232" />
    <vehicle id="right_85" type="typeWE" route="right" depart="235" />
    <vehicle id="left_86" type="typeWE" route="left" depart="240" />
    <vehicle id="down_87" type="typeNS" route="down" depart="242" color="1,0,0"/>
    <vehicle id="right_88" type="typeWE" route="right" depart="245" />
    <vehicle id="down_89" type="typeNS" route="down" depart="245" color="1,0,0"/>
    <vehicle id="left_90" type="typeWE" route="left" depart="246" />
    <vehicle id="left_91" type="typeWE" route="left" depart="250" />
    <vehicle id="up_92" type="typeNS" route="up" depart="253" color="1,0,0"/>
    <vehicle id="up_93" type="typeNS" route="up" depart="258" color="1,0,0"/>
    <vehicle id="up_94" type="typeNS" route="up" depart="260" color="1,0,0"/>
    <vehicle id="right_95" type="typeWE" route="right" depart="265" />
    <vehicle id="left_96" type="typeWE" route="left" depart="267" />
    <vehicle id="up_97" type="typeNS" route="up" depart="269" color="1,0,0"/>
    <vehicle id="right_98" type="typeWE" route="right" depart="271" />
    <vehicle id="up_99" type="typeNS" route="up" depart="275" color="1,0,0"/>
    <vehicle id="right_100" type="typeWE" route="right" depart="276" />
    <vehicle id="down_101" type="typeNS" route="down" depart="276" color="1,0,0"/>
    <vehicle id="right_102" type="typeWE" route="right" depart="278" />
    <vehicle id="down_103" type="typeNS" route="down" depart="279" color="1,0,0"/>
    <vehicle id="up_104" type="typeNS" route="up" depart="279" color="1,0,0"/>
    <vehicle id="up_105" type="typeNS" route="up" depart="282" color="1,0,0"/>
    <vehicle id="down_106" type="typeNS" route="down" depart="283" color="1,0,0"/>
    <vehicle id="left_107" type="typeWE" route="left" depart="287" />
    <vehicle id="up_108" type="typeNS" route="up" depart="287" color="1,0,0"/>
    <vehicle id="up_109" type="typeNS" route="up" depart="291" color="1,0,0"/>
    <vehicle id="down_110" type="typeNS" route="down" depart="292" color="1,0,0"/>
    <vehicle id="right_111" type="typeWE" route="right" depart="295" />
    <vehicle id="right_112" type="typeWE" route="right" depart="296" />
    <vehicle id="up_113" type="typeNS" route="up" depart="301" color="1,0,0"/>
    <vehicle id="down_114" type="typeNS" route="down" depart="302" color="1,0,0"/>
    <vehicle id="right_115" type="typeWE" route="right" depart="308" />
    <vehicle id="down_116" type="typeNS" route="down" depart="314" color="1,0,0"/>
    <vehicle id="left_117" type="typeWE" route="left" depart="316" />
    <vehicle id="right_118" type="typeWE" route="right" depart="319" />
    <vehicle id="up_119" type="typeNS" route="up" depart="320" color="1,0,0"/>
    <vehicle id="left_120" type="typeWE" route="left" depart="321" />
    <vehicle id="down_121" type="typeNS" route="down" depart="322" color="1,0,0"/>
    <vehicle id="right_122" type="typeWE" route="right" depart="324" />
    <vehicle id="left_123" type="typeWE" route="left" depart="326" />
    <vehicle id="right_124" type="typeWE" route="right" depart="328" />
    <vehicle id="right_125" type="typeWE" route="right" depart="330" />
    <vehicle id="left_126" type="typeWE" route="left" depart="334" />
    <vehicle id="up_127" type="typeNS" route="up" depart="335" color="1,0,0"/>
    <vehicle id="right_128" type="typeWE" route="right" depart="340" />
    <vehicle id="up_129" type="typeNS" route="up" depart="340" color="1,0,0"/>
    <vehicle id="up_130" type="typeNS" route="up" depart="342" color="1,0,0"/>
    <vehicle id="up_131" type="typeNS" route="up" depart="348" color="1,0,0"/>
    <vehicle id="right_132" type="typeWE" route="right" depart="349" />
    <vehicle id="right_133" type="typeWE" route="right" depart="351" />
    <vehicle id="down_134" type="typeNS" route="down" depart="353" color="1,0,0"/>
    <vehicle id="left_135" type="typeWE" route="left" depart="356" />
    <vehicle id="up_136" type="typeNS" route="up" depart="360" color="1,0,0"/>
    <vehicle id="right_137" type="typeWE" route="right" depart="363" />
    <vehicle id="down_138" type="typeNS" route="down" depart="363" color="1,0,0"/>
    <vehicle id="left_139" type="typeWE" route="left" depart="368" />
    <vehicle id="right_140" type="typeWE" route="right" depart="369" />
    <vehicle id="up_141" type="typeNS" route="up" depart="372" color="1,0,0"/>
    <vehicle id="down_142" type="typeNS" route="down" depart="378" color="1,0,0"/>
    <vehicle id="right_143" type="typeWE" route="right" depart="379" />
    <vehicle id="left_144" type="typeWE" route="left" depart="380" />
    <vehicle id="up_145" type="typeNS" route="up" depart="380" color="1,0,0"/>
    <vehicle id="right_146" type="typeWE" route="right" depart="382" />
    <vehicle id="up_147" type="typeNS" route="up" depart="382" color="1,0,0"/>
    <vehicle id="up_148" type="typeNS" route="up" depart="386" color="1,0,0"/>
    <vehicle id="up_149" type="typeNS" route="up" depart="387" color="1,0,0"/>
    <vehicle id="left_150" type="typeWE" route="left" depart="388" />
    <vehicle id="left_151" type="typeWE" route="left" depart="391" />
    <vehicle id="right_152" type="typeWE" route="right" depart="392" />
    <vehicle id="left_153" type="typeWE" route="left" depart="394" />
    <vehicle id="left_154" type="typeWE" route="left" depart="395" />
    <vehicle id="right_155" type="typeWE" route="right" depart="397" />
    <vehicle id="up_156" type="typeNS" route="up" depart="397" color="1,0,0"/>
    <vehicle id="left_157" type="typeWE" route="left" depart="398" />
    <vehicle id="right_158" type="typeWE" route="right" depart="404" />
    <vehicle id="up_159" type="typeNS" route="up" depart="408" color="1,0,0"/>
    <vehicle id="down_160" type="typeNS" route="down" depart="409" color="1,0,0"/>
    <vehicle id="up_161" type="typeNS" route="up" depart="411" color="1,0,0"/>
    <vehicle id="down_162" type="typeNS" route="down" depart="412" color="1,0,0"/>
    <vehicle id="right_163" type="typeWE" route="right" depart="416" />
    <vehicle id="up_164" type="typeNS" route="up" depart="416" color="1,0,0"/>
    <vehicle id="left_165" type="typeWE" route="left" depart="418" />
    <vehicle id="up_166" type="typeNS" route="up" depart="419" color="1,0,0"/>
    <vehicle id="left_167" type="typeWE" route="left" depart="421" />
    <vehicle id="down_168" type="typeNS" route="down" depart="422" color="1,0,0"/>
    <vehicle id="up_169" type="typeNS" route="up" depart="422" color="1,0,0"/>
    <vehicle id="left_170" type="typeWE" route="left" depart="424" />
    <vehicle id="up_171" type="typeNS" route="up" depart="424" color="1,0,0"/>
    <vehicle id="right_172" type="typeWE" route="right" depart="428" />
    <vehicle id="down_173" type="typeNS" route="down" depart="431" color="1,0,0"/>
    <vehicle id="left_174" type="typeWE" route="left" depart="432" />
    <vehicle id="up_175" type="typeNS" route="up" depart="435" color="1,0,0"/>
    <vehicle id="right_176" type="typeWE" route="right" depart="438" />
    <vehicle id="up_177" type="typeNS" route="up" depart="444" color="1,0,0"/>
    <vehicle id="down_178" type="typeNS" route="down" depart="446" color="1,0,0"/>
    <vehicle id="down_179" type="typeNS" route="down" depart="447" color="1,0,0"/>
    <vehicle id="down_180" type="typeNS" route="down" depart="449" color="1,0,0"/>
    <vehicle id="up_181" type="typeNS" route="up" depart="451" color="1,0,0"/>
    <vehicle id="right_182" type="typeWE" route="right" depart="454" />
    <vehicle id="left_183" type="typeWE" route="left" depart="459" />
    <vehicle id="up_184" type="typeNS" route="up" depart="460" color="1,0,0"/>
    <vehicle id="up_185" type="typeNS" route="up" depart="461" color="1,0,0"/>
    <vehicle id="down_186" type="typeNS" route="down" depart="464" color="1,0,0"/>
    <vehicle id="left_187" type="typeWE" route="left" depart="466" />
    <vehicle id="right_188" type="typeWE" route="right" depart="469" />
    <vehicle id="left_189" type="typeWE" route="left" depart="470" />
    <vehicle id="up_190" type="typeNS" route="up" depart="470" color="1,0,0"/>
    <vehicle id="left_191" type="typeWE" route="left" depart="475" />
    <vehicle id="left_192" type="typeWE" route="left" depart="482" />
    <vehicle id="left_193" type="typeWE" route="left" depart="484" />
    <vehicle id="right_194" type="typeWE" route="right" depart="487" />
    <vehicle id="left_195" type="typeWE" route="left" depart="487" />
    <vehicle id="right_196" type="typeWE" route="right" depart="491" />
    <vehicle id="left_197" type="typeWE" route="left" depart="493" />
    <vehicle id="up_198" type="typeNS" route="up" depart="497" color="1,0,0"/>
    <vehicle id="left_199" type="typeWE" route="left" depart="501" />
    <vehicle id="up_200" type="typeNS" route="up" depart="501" color="1,0,0"/>
    <vehicle id="down_201" type="typeNS" route="down" depart="506" color="1,0,0"/>
    <vehicle id="up_202" type="typeNS" route="up" depart="510" color="1,0,0"/>
    <vehicle id="down_203" type="typeNS" route="down" depart="515" color="1,0,0"/>
    <vehicle id="up_204" type="typeNS" route="up" depart="517" color="1,0,0"/>
    <vehicle id="left_205" type="typeWE" route="left" depart="520" />
    <vehicle id="right_206" type="typeWE" route="right" depart="521" />
    <vehicle id="up_207" type="typeNS" route="up" depart="523" color="1,0,0"/>
    <vehicle id="down_208" type="typeNS" route="down" depart="524" color="1,0,0"/>
    <vehicle id="right_209" type="typeWE" route="right" depart="525" />
    <vehicle id="left_210" type="typeWE" route="left" depart="529" />
    <vehicle id="left_211" type="typeWE" route="left" depart="530" />
    <vehicle id="right_212" type="typeWE" route="right" depart="531" />
    <vehicle id="down_213" type="typeNS" route="down" depart="535" color="1,0,0"/>
    <vehicle id="down_214" type="typeNS" route="down" depart="537" color="1,0,0"/>
    <vehicle id="up_215" type="typeNS" route="up" depart="538" color="1,0,0"/>
    <vehicle id="right_216" type="typeWE" route="right" depart="539" />
    <vehicle id="up_217" type="typeNS" route="up" depart="540" color="1,0,0"/>
    <vehicle id="right_218" type="typeWE" route="right" depart="546" />
    <vehicle id="down_219" type="typeNS" route="down" depart="547" color="1,0,0"/>
    <vehicle id="down_220" type="typeNS" route="down" depart="550" color="1,0,0"/>
    <vehicle id="up_221" type="typeNS" route="up" depart="552" color="1,0,0"/>
    <vehicle id="down_222" type="typeNS" route="down" depart="558" color="1,0,0"/>
    <vehicle id="right_223" type="typeWE" route="right" depart="561" />
    <vehicle id="down_224" type="typeNS" route="down" depart="564" color="1,0,0"/>
    <vehicle id="left_225" type="typeWE" route="left" depart="565" />
    <vehicle id="left_226" type="typeWE" route="left" depart="566" />
    <vehicle id="down_227" type="typeNS" route="down" depart="566" color="1,0,0"/>
    <vehicle id="left_228" type="typeWE" route="left" depart="568" />
    <vehicle id="up_229" type="typeNS" route="up" depart="573" color="1,0,0"/>
    <vehicle id="up_230" type="typeNS" route="up" depart="576" color="1,0,0"/>
    <vehicle id="left_231" type="typeWE" route="left" depart="578" />
    <vehicle id="left_232" type="typeWE" route="left" depart="579" />
    <vehicle id="down_233" type="typeNS" route="down" depart="581" color="1,0,0"/>
    <vehicle id="up_234" type="typeNS" route="up" depart="581" color="1,0,0"/>
    <vehicle id="down_235" type="typeNS" route="down" depart="586" color="1,0,0"/>
    <vehicle id="right_236" type="typeWE" route="right" depart="590" />
    <vehicle id="down_237" type="typeNS" route="down" depart="599" color="1,0,0"/>
    <vehicle id="up_238" type="typeNS" route="up" depart="602" color="1,0,0"/>
    <vehicle id="left_239" type="typeWE" route="left" depart="604" />
    <vehicle id="down_240" type="typeNS" route="down" depart="606" color="1,0,0"/>
    <vehicle id="up_241" type="typeNS" route="up" depart="610" color="1,0,0"/>
    <vehicle id="up_242" type="typeNS" route="up" depart="611" color="1,0,0"/>
    <vehicle id="down_243" type="typeNS" route="down" depart="612" color="1,0,0"/>
    <vehicle id="right_244" type="typeWE" route="right" depart="617" />
    <vehicle id="down_245" type="typeNS" route="down" depart="617" color="1,0,0"/>
    <vehicle id="up_246" type="typeNS" route="up" depart="622" color="1,0,0"/>
    <vehicle id="down_247" type="typeNS" route="down" depart="625" color="1,0,0"/>
    <vehicle id="left_248" type="typeWE" route="left" depart="630" />
    <vehicle id="down_249" type="typeNS" route="down" depart="632" color="1,0,0"/>
    <vehicle id="right_250" type="typeWE" route="right" depart="635" />
    <vehicle id="down_251" type="typeNS" route="down" depart="635" color="1,0,0"/>
    <vehicle id="up_252" type="typeNS" route="up" depart="635" color="1,0,0"/>
    <vehicle id="left_253" type="typeWE" route="left" depart="636" />
    <vehicle id="right_254" type="typeWE" route="right" depart="638" />
    <vehicle id="right_255" type="typeWE" route="right" depart="640" />
    <vehicle id="left_256" type="typeWE" route="left" depart="645" />
    <vehicle id="down_257" type="typeNS" route="down" depart="653" color="1,0,0"/>
    <vehicle id="left_258" type="typeWE" route="left" depart="665" />
    <vehicle id="down_259" type="typeNS" route="down" depart="667" color="1,0,0"/>
    <vehicle id="left_260" type="typeWE" route="left" depart="670" />
    <vehicle id="down_261" type="typeNS" route="down" depart="671" color="1,0,0"/>
    <vehicle id="up_262" type="typeNS" route="up" depart="672" color="1,0,0"/>
    <vehicle id="down_263" type="typeNS" route="down" depart="677" color="1,0,0"/>
    <vehicle id="right_264" type="typeWE" route="right" depart="679" />
    <vehicle id="left_265" type="typeWE" route="left" depart="680" />
    <vehicle id="right_266" type="typeWE" route="right" depart="685" />
    <vehicle id="left_267" type="typeWE" route="left" depart="686" />
    <vehicle id="left_268" type="typeWE" route="left" depart="687" />
    <vehicle id="down_269" type="typeNS" route="down" depart="687" color="1,0,0"/>
    <vehicle id="left_270" type="typeWE" route="left" depart="689" />
    <vehicle id="right_271" type="typeWE" route="right" depart="690" />
    <vehicle id="down_272" type="typeNS" route="down" depart="696" color="1,0,0"/>
    <vehicle id="down_273" type="typeNS" route="down" depart="698" color="1,0,0"/>
    <vehicle id="left_274" type="typeWE" route="left" depart="700" />
    <vehicle id="up_275" type="typeNS" route="up" depart="700" color="1,0,0"/>
    <vehicle id="up_276" type="typeNS" route="up" depart="702" color="1,0,0"/>
    <vehicle id="down_277" type="typeNS" route="down" depart="704" color="1,0,0"/>
    <vehicle id="right_278" type="typeWE" route="right" depart="705" />
    <vehicle id="up_279" type="typeNS" route="up" depart="705" color="1,0,0"/>
    <vehicle id="right_280" type="typeWE" route="right" depart="707" />
    <vehicle id="down_281" type="typeNS" route="down" depart="707" color="1,0,0"/>
    <vehicle id="down_282" type="typeNS" route="down" depart="711" color="1,0,0"/>
    <vehicle id="up_283" type="typeNS" route="up" depart="718" color="1,0,0"/>
    <vehicle id="left_284" type="typeWE" route="left" depart="723" />
    <vehicle id="down_285" type="typeNS" route="down" depart="723" color="1,0,0"/>
    <vehicle id="down_286" type="typeNS" route="down" depart="727" color="1,0,0"/>
    <vehicle id="up_287" type="typeNS" route="up" depart="729" color="1,0,0"/>
    <vehicle id="down_288" type="typeNS" route="down" depart="734" color="1,0,0"/>
    <vehicle id="up_289" type="typeNS" route="up" depart="736" color="1,0,0"/>
    <vehicle id="left_290" type="typeWE" route="left" depart="738" />
    <vehicle id="right_291" type="typeWE" route="right" depart="740" />
    <vehicle id="down_292" type="typeNS" route="down" depart="743" color="1,0,0"/>
    <vehicle id="up_293" type="typeNS" route="up" depart="743" color="1,0,0"/>
    <vehicle id="up_294" type="typeNS" route="up" depart="747" color="1,0,0"/>
    <vehicle id="down_295" type="typeNS" route="down" depart="748" color="1,0,0"/>
    <vehicle id="right_296" type="typeWE" route="right" depart="753" />
    <vehicle id="up_297" type="typeNS" route="up" depart="753" color="1,0,0"/>
    <vehicle id="right_298" type="typeWE" route="right" depart="755" />
    <vehicle id="right_299" type="typeWE" route="right" depart="757" />
    <vehicle id="down_300" type="typeNS" route="down" depart="761" color="1,0,0"/>
    <vehicle id="down_301" type="typeNS" route="down" depart="762" color="1,0,0"/>
    <vehicle id="up_302" type="typeNS" route="up" depart="767" color="1,0,0"/>
    <vehicle id="down_303" type="typeNS" route="down" depart="769" color="1,0,0"/>
    <vehicle id="up_304" type="typeNS" route="up" depart="774" color="1,0,0"/>
    <vehicle id="down_305" type="typeNS" route="down" depart="775" color="1,0,0"/>
    <vehicle id="right_306" type="typeWE" route="right" depart="779" />
    <vehicle id="down_307" type="typeNS" route="down" depart="780" color="1,0,0"/>
    <vehicle id="right_308" type="typeWE" route="right" depart="784" />
    <vehicle id="down_309" type="typeNS" route="down" depart="786" color="1,0,0"/>
    <vehicle id="down_310" type="typeNS" route="down" depart="789" color="1,0,0"/>
    <vehicle id="up_311" type="typeNS" route="up" depart="790" color="1,0,0"/>
    <vehicle id="left_312" type="typeWE" route="left" depart="793" />
    <vehicle id="down_313" type="typeNS" route="down" depart="793" color="1,0,0"/>
    <vehicle id="left_314" type="typeWE" route="left" depart="797" />
    <vehicle id="down_315" type="typeNS" route="down" depart="798" color="1,0,0"/>
    <vehicle id="up_316" type="typeNS" route="up" depart="799" color="1,0,0"/>
    <vehicle id="right_317" type="typeWE" route="right" depart="801" />
    <vehicle id="right_318" type="typeWE" route="right" depart="802" />
    <vehicle id="right_319" type="typeWE" route="right" depart="803" />
    <vehicle id="left_320" type="typeWE" route="left" depart="806" />
    <vehicle id="left_321" type="typeWE" route="left" depart="807" />
    <vehicle id="right_322" type="typeWE" route="right" depart="811" />
    <vehicle id="up_323" type="typeNS" route="up" depart="813" color="1,0,0"/>
    <vehicle id="down_324" type="typeNS" route="down" depart="815" color="1,0,0"/>
    <vehicle id="right_325" type="typeWE" route="right" depart="816" />
    <vehicle id="down_326" type="typeNS" route="down" depart="817" color="1,0,0"/>
    <vehicle id="up_327" type="typeNS" route="up" depart="820" color="1,0,0"/>
    <vehicle id="up_328" type="typeNS" route="up" depart="822" color="1,0,0"/>
    <vehicle id="up_329" type="typeNS" route="up" depart="827" color="1,0,0"/>
    <vehicle id="left_330" type="typeWE" route="left" depart="828" />
    <vehicle id="down_331" type="typeNS" route="down" depart="828" color="1,0,0"/>
    <vehicle id="down_332" type="typeNS" route="down" depart="829" color="1,0,0"/>
    <vehicle id="left_333" type="typeWE" route="left" depart="838" />
    <vehicle id="right_334" type="typeWE" route="right" depart="840" />
    <vehicle id="left_335" type="typeWE" route="left" depart="844" />
    <vehicle id="right_336" type="typeWE" route="right" depart="847" />
    <vehicle id="left_337" type="typeWE" route="left" depart="848" />
    <vehicle id="left_338" type="typeWE" route="left" depart="849" />
    <vehicle id="left_339" type="typeWE" route="left" depart="862" />
    <vehicle id="right_340" type="typeWE" route="right" depart="863" />
    <vehicle id="right_341" type="typeWE" route="right" depart="864" />
    <vehicle id="left_342" type="typeWE" route="left" depart="864" />
    <vehicle id="up_343" type="typeNS" route="up" depart="868" color="1,0,0"/>
    <vehicle id="down_344" type="typeNS" route="down" depart="872" color="1,0,0"/>
    <vehicle id="right_345" type="typeWE" route="right" depart="873" />
    <vehicle id="left_346" type="typeWE" route="left" depart="875" />
    <vehicle id="up_347" type="typeNS" route="up" depart="875" color="1,0,0"/>
    <vehicle id="down_348" type="typeNS" route="down" depart="884" color="1,0,0"/>
    <vehicle id="right_349" type="typeWE" route="right" depart="887" />
    <vehicle id="right_350" type="typeWE" route="right" depart="888" />
    <vehicle id="left_351" type="typeWE" route="left" depart="889" />
    <vehicle id="up_352" type="typeNS" route="up" depart="889" color="1,0,0"/>
    <vehicle id="down_353" type="typeNS" route="down" depart="901" color="1,0,0"/>
    <vehicle id="left_354" type="typeWE" route="left" depart="903" />
    <vehicle id="right_355" type="typeWE" route="right" depart="907" />
    <vehicle id="left_356" type="typeWE" route="left" depart="907" />
    <vehicle id="down_357" type="typeNS" route="down" depart="911" color="1,0,0"/>
    <vehicle id="up_358" type="typeNS" route="up" depart="912" color="1,0,0"/>
    <vehicle id="left_359" type="typeWE" route="left" depart="913" />
    <vehicle id="right_360" type="typeWE" route="right" depart="919" />
    <vehicle id="up_361" type="typeNS" route="up" depart="920" color="1,0,0"/>
    <vehicle id="right_362" type="typeWE" route="right" depart="921" />
    <vehicle id="down_363" type="typeNS" route="down" depart="925" color="1,0,0"/>
    <vehicle id="right_364" type="typeWE" route="right" depart="932" />
    <vehicle id="right_365" type="typeWE" route="right" depart="933" />
    <vehicle id="right_366" type="typeWE" route="right" depart="942" />
    <vehicle id="up_367" type="typeNS" route="up" depart="943" color="1,0,0"/>
    <vehicle id="right_368" type="typeWE" route="right" depart="947" />
    <vehicle id="left_369" type="typeWE" route="left" depart="948" />
    <vehicle id="right_370" type="typeWE" route="right" depart="952" />
    <vehicle id="right_371" type="typeWE" route="right" depart="954" />
    <vehicle id="left_372" type="typeWE" route="left" depart="954" />
    <vehicle id="left_373" type="typeWE" route="left" depart="957" />
    <vehicle id="right_374" type="typeWE" route="right" depart="961" />
    <vehicle id="down_375" type="typeNS" route="down" depart="962" color="1,0,0"/>
    <vehicle id="down_376" type="typeNS" route="down" depart="967" color="1,0,0"/>
    <vehicle id="up_377" type="typeNS" route="up" depart="968" color="1,0,0"/>
    <vehicle id="left_378" type="typeWE" route="left" depart="970" />
    <vehicle id="left_379" type="typeWE" route="left" depart="972" />
    <vehicle id="right_380" type="typeWE" route="right" depart="973" />
    <vehicle id="down_381" type="typeNS" route="down" depart="976" color="1,0,0"/>
    <vehicle id="up_382" type="typeNS" route="up" depart="980" color="1,0,0"/>
    <vehicle id="left_383" type="typeWE" route="left" depart="981" />
    <vehicle id="down_384" type="typeNS" route="down" depart="983" color="1,0,0"/>
    <vehicle id="up_385" type="typeNS" route="up" depart="986" color="1,0,0"/>
    <vehicle id="left_386" type="typeWE" route="left" depart="987" />
    <vehicle id="up_387" type="typeNS" route="up" depart="991" color="1,0,0"/>
    <vehicle id="left_388" type="typeWE" route="left" depart="993" />
    <vehicle id="up_389" type="typeNS" route="up" depart="997" color="1,0,0"/>