<routes>
            <vType id="typeWE" accel="0.8" decel="4.5" sigma="0.5" length="5" minGap="2.5" maxSpeed="16.67" guiShape="passenger"/>
            <vType id="typeNS" accel="0.8" decel="4.5" sigma="0.5" length="5" minGap="2.5" maxSpeed="16.67" guiShape="passenger"/>
            <route id="right" edges="51o 1i 2o 52i" />
            <route id="left" edges="52o 2i 1o 51i" />
            <route id="up" edges="53o 3i 4o 54i" />
            <route id="down" edges="54o 4i 3o 53i" />
    <vehicle id="left_0" type="typeWE" route="left" depart="1" />
    <vehicle id="right_1" type="typeWE" route="right" depart="3" />
    <vehicle id="left_2" type="typeWE" route="left" depart="4" />
    <vehicle id="up_3" type="typeNS" route="up" depart="4" color="1,0,0"/>
    <vehicle id="left_4" type="typeWE" route="left" depart="13" />
    <vehicle id="up_5" type="typeNS" route="up" depart="14" color="1,0,0"/>
    <vehicle id="up_6" type="typeNS" route="up" depart="17" color="1,0,0"/>
    <vehicle id="right_7" type="typeWE" route="right" depart="20" />
    <vehicle id="down_8" type="typeNS" route="down" depart="21" color="1,0,0"/>
    <vehicle id="down_9" type="typeNS" route="down" depart="28" color="1,0,0"/>
    <vehicle id="down_10" type="typeNS" route="down" depart="29" color="1,0,0"/>
    <vehicle id="left_11" type="typeWE" route="left" depart="30" />
    <vehicle id="up_12" type="typeNS" route="up" depart="30" color="1,0,0"/>
    <vehicle id="down_13" type="typeNS" route="down" depart="33" color="1,0,0"/>
    <vehicle id="down_14" type="typeNS" route="down" depart="39" color="1,0,0"/>
    <vehicle id="left_15" type="typeWE" route="left" depart="41" />
    <vehicle id="left_16" type="typeWE" route="left" depart="46" />
    <vehicle id="up_17" type="typeNS" route="up" depart="47" color="1,0,0"/>
    <vehicle id="up_18" type="typeNS" route="up" depart="52" color="1,0,0"/>
    <vehicle id="down_19" type="typeNS" route="down" depart="55" color="1,0,0"/>
    <vehicle id="down_20" type="typeNS" route="down" depart="58" color="1,0,0"/>
    <vehicle id="down_21" type="typeNS" route="down" depart="60" color="1,0,0"/>
    <vehicle id="down_22" type="typeNS" route="down" depart="63" color="1,0,0"/>
    <vehicle id="left_23" type="typeWE" route="left" depart="71" />
    <vehicle id="right_24" type="typeWE" route="right" depart="74" />
    <vehicle id="up_25" type="typeNS" route="up" depart="74" color="1,0,0"/>
    <vehicle id="up_26" type="typeNS" route="up" depart="80" color="1,0,0"/>
    <vehicle id="up_27" type="typeNS" route="up" depart="84" color="1,0,0"/>
    <vehicle id="down_28" type="typeNS" route="down" depart="90" color="1,0,0"/>
    <vehicle id="right_29" type="typeWE" route="right" depart="92" />
    <vehicle id="left_30" type="typeWE" route="left" depart="92" />
    <vehicle id="up_31" type="typeNS" route="up" depart="94" color="1,0,0"/>
    <vehicle id="left_32" type="typeWE" route="left" depart="96" />
    <vehicle id="down_33" type="typeNS" route="down" depart="96" color="1,0,0"/>
    <vehicle id="down_34" type="typeNS" route="down" depart="97" color="1,0,0"/>
    <vehicle id="up_35" type="typeNS" route="up" depart="97" color="1,0,0"/>
    <vehicle id="down_36" type="typeNS" route="down" depart="101" color="1,0,0"/>
    <vehicle id="up_37" type="typeNS" route="up" depart="101" color="1,0,0"/>
    <vehicle id="right_38" type="typeWE" route="right" depart="103" />
    <vehicle id="down_39" type="typeNS" route="down" depart="106" color="1,0,0"/>
    <vehicle id="up_40" type="typeNS" route="up" depart="106" color="1,0,0"/>
    <vehicle id="right_41" type="typeWE" route="right" depart="111" />
    <vehicle id="down_42" type="typeNS" route="down" depart="111" color="1,0,0"/>
    <vehicle id="left_43" type="typeWE" route="left" depart="112" />
    <vehicle id="left_44" type="typeWE" route="left" depart="115" />
    <vehicle id="left_45" type="typeWE" route="left" depart="116" />
    <vehicle id="right_46" type="typeWE" route="right" depart="117" />
    <vehicle id="down_47" type="typeNS" route="down" depart="119" color="1,0,0"/>
    <vehicle id="up_48" type="typeNS" route="up" depart="120" color="1,0,0"/>
    <vehicle id="left_49" type="typeWE" route="left" depart="127" />
    <vehicle id="left_50" type="typeWE" route="left" depart="128" />
    <vehicle id="right_51" type="typeWE" route="right" depart="130" />
    <vehicle id="down_52" type="typeNS" route="down" depart="131" color="1,0,0"/>
    <vehicle id="left_53" type="typeWE" route="left" depart="132" />
    <vehicle id="up_54" type="typeNS" route="up" depart="136" color="1,0,0"/>
    <vehicle id="down_55" type="typeNS" route="down" depart="138" color="1,0,0"/>
    <vehicle id="right_56" type="typeWE" route="right" depart="140" />
    <vehicle id="right_57" type="typeWE" route="right" depart="142" />
    <vehicle id="right_58" type="typeWE" route="right" depart="143" />
    <vehicle id="left_59" type="typeWE" route="left" depart="146" />
    <vehicle id="right_60" type="typeWE" route="right" depart="150" />
    <vehicle id="left_61" type="typeWE" route="left" depart="155" />
    <vehicle id="up_62" type="typeNS" route="up" depart="157" color="1,0,0"/>
    <vehicle id="left_63" type="typeWE" route="left" depart="158" />
    <vehicle id="up_64" type="typeNS" route="up" depart="158" color="1,0,0"/>
    <vehicle id="up_65" type="typeNS" route="up" depart="159" color="1,0,0"/>
    <vehicle id="down_66" type="typeNS" route="down" depart="162" color="1,0,0"/>
    <vehicle id="up_67" type="typeNS" route="up" depart="162" color="1,0,0"/>
    <vehicle id="down_68" type="typeNS" route="down" depart="164" color="1,0,0"/>
    <vehicle id="up_69" type="typeNS" route="up" depart="164" color="1,0,0"/>
    <vehicle id="down_70" type="typeNS" route="down" depart="165" color="1,0,0"/>
    <vehicle id="up_71" type="typeNS" route="up" depart="166" color="1,0,0"/>
    <vehicle id="left_72" type="typeWE" route="left" depart="171" />
    <vehicle id="right_73" type="typeWE" route="right" depart="172" />
    <vehicle id="right_74" type="typeWE" route="right" depart="175" />
    <vehicle id="right_75" type="typeWE" route="right" depart="176" />
    <vehicle id="down_76" type="typeNS" route="down" depart="176" color="1,0,0"/>
    <vehicle id="up_77" type="typeNS" route="up" depart="178" color="1,0,0"/>
    <vehicle id="right_78" type="typeWE" route="right" depart="181" />
    <vehicle id="down_79" type="typeNS" route="down" depart="181" color="1,0,0"/>
    <vehicle id="up_80" type="typeNS" route="up" depart="183" color="1,0,0"/>
    <vehicle id="down_81" type="typeNS" route="down" depart="189" color="1,0,0"/>
    <vehicle id="up_82" type="typeNS" route="up" depart="189" color="1,0,0"/>
    <vehicle id="down_83" type="typeNS" route="down" depart="190" color="1,0,0"/>
    <vehicle id="up_84" type="typeNS" route="up" depart="192" color="1,0,0"/>
    <vehicle id="right_85" type="typeWE" route="right" depart="193" />
    <vehicle id="right_86" type="typeWE" route="right" depart="198" />
    <vehicle id="up_87" type="typeNS" route="up" depart="200" color="1,0,0"/>
    <vehicle id="up_88" type="typeNS" route="up" depart="203" color="1,0,0"/>
    <vehicle id="down_89" type="typeNS" route="down" depart="206" color="1,0,0"/>
    <vehicle id="right_90" type="typeWE" route="right" depart="207" />
    <vehicle id="up_91" type="typeNS" route="up" depart="208" color="1,0,0"/>
    <vehicle id="right_92" type="typeWE" route="right" depart="209" />
    <vehicle id="up_93" type="typeNS" route="up" depart="210" color="1,0,0"/>
    <vehicle id="left_94" type="typeWE" route="left" depart="211" />
    <vehicle id="right_95" type="typeWE" route="right" depart="217" />
    <vehicle id="left_96" type="typeWE" route="left" depart="221" />
    <vehicle id="up_97" type="typeNS" route="up" depart="221" color="1,0,0"/>
    <vehicle id="left_98" type="typeWE" route="left" depart="230" />
    <vehicle id="down_99" type="typeNS" route="down" depart="236" color="1,0,0"/>
    <vehicle id="up_100" type="typeNS" route="up" depart="236" color="1,0,0"/>
    <vehicle id="right_101" type="typeWE" route="right" depart="239" />
    <vehicle id="right_102" type="typeWE" route="right" depart="241" />
    <vehicle id="right_103" type="typeWE" route="right" depart="243" />
    <vehicle id="left_104" type="typeWE" route="left" depart="243" />
    <vehicle id="up_105" type="typeNS" route="up" depart="243" color="1,0,0"/>
    <vehicle id="down_106" type="typeNS" route="down" depart="244" color="1,0,0"/>
    <vehicle id="up_107" type="typeNS" route="up" depart="248" color="1,0,0"/>
    <vehicle id="down_108" type="typeNS" route="down" depart="249" color="1,0,0"/>
    <vehicle id="up_109" type="typeNS" route="up" depart="251" color="1,0,0"/>
    <vehicle id="down_110" type="typeNS" route="down" depart="252" color="1,0,0"/>
    <vehicle id="up_111" type="typeNS" route="up" depart="252" color="1,0,0"/>
    <vehicle id="right_112" type="typeWE" route="right" depart="253" />
    <vehicle id="left_113" type="typeWE" route="left" depart="253" />
    <vehicle id="left_114" type="typeWE" route="left" depart="258" />
    <vehicle id="down_115" type="typeNS" route="down" depart="260" color="1,0,0"/>
    <vehicle id="down_116" type="typeNS" route="down" depart="268" color="1,0,0"/>
    <vehicle id="up_117" type="typeNS" route="up" depart="268" color="1,0,0"/>
    <vehicle id="left_118" type="typeWE" route="left" depart="275" />
    <vehicle id="right_119" type="typeWE" route="right" depart="277" />
    <vehicle id="down_120" type="typeNS" route="down" depart="281" color="1,0,0"/>
    <vehicle id="right_121" type="typeWE" route="right" depart="284" />
    <vehicle id="down_122" type="typeNS" route="down" depart="292" color="1,0,0"/>
    <vehicle id="left_123" type="typeWE" route="left" depart="294" />
    <vehicle id="up_124" type="typeNS" route="up" depart="294" color="1,0,0"/>
    <vehicle id="down_125" type="typeNS" route="down" depart="296" color="1,0,0"/>
    <vehicle id="up_126" type="typeNS" route="up" depart="298" color="1,0,0"/>
    <vehicle id="right_127" type="typeWE" route="right" depart="299" />
    <vehicle id="up_128" type="typeNS" route="up" depart="299" color="1,0,0"/>
    <vehicle id="down_129" type="typeNS" route="down" depart="300" color="1,0,0"/>
    <vehicle id="left_130" type="typeWE" route="left" depart="302" />
    <vehicle id="down_131" type="typeNS" route="down" depart="303" color="1,0,0"/>
    <vehicle id="left_132" type="typeWE" route="left" depart="306" />
    <vehicle id="up_133" type="typeNS" route="up" depart="307" color="1,0,0"/>
    <vehicle id="left_134" type="typeWE" route="left" depart="314" />
    <vehicle id="left_135" type="typeWE" route="left" depart="315" />
    <vehicle id="down_136" type="typeNS" route="down" depart="318" color="1,0,0"/>
    <vehicle id="left_137" type="typeWE" route="left" depart="323" />
    <vehicle id="left_138" type="typeWE" route="left" depart="325" />
    <vehicle id="up_139" type="typeNS" route="up" depart="325" color="1,0,0"/>
    <vehicle id="down_140" type="typeNS" route="down" depart="327" color="1,0,0"/>
    <vehicle id="right_141" type="typeWE" route="right" depart="329" />
    <vehicle id="up_142" type="typeNS" route="up" depart="329" color="1,0,0"/>
    <vehicle id="down_143" type="typeNS" route="down" depart="330" color="1,0,0"/>
    <vehicle id="up_144" type="typeNS" route="up" depart="330" color="1,0,0"/>
    <vehicle id="up_145" type="typeNS" route="up" depart="334" color="1,0,0"/>
    <vehicle id="left_146" type="typeWE" route="left" depart="335" />
    <vehicle id="right_147" type="typeWE" route="right" depart="337" />
    <vehicle id="right_148" type="typeWE" route="right" depart="339" />
    <vehicle id="left_149" type="typeWE" route="left" depart="339" />
    <vehicle id="up_150" type="typeNS" route="up" depart="339" color="1,0,0"/>
    <vehicle id="right_151" type="typeWE" route="right" depart="341" />
    <vehicle id="up_152" type="typeNS" route="up" depart="341" color="1,0,0"/>
    <vehicle id="left_153" type="typeWE" route="left" depart="342" />
    <vehicle id="right_154" type="typeWE" route="right" depart="343" />
    <vehicle id="right_155" type="typeWE" route="right" depart="345" />
    <vehicle id="up_156" type="typeNS" route="up" depart="347" color="1,0,0"/>
    <vehicle id="right_157" type="typeWE" route="right" depart="350" />
    <vehicle id="down_158" type="typeNS" route="down" depart="352" color="1,0,0"/>
    <vehicle id="up_159" type="typeNS" route="up" depart="354" color="1,0,0"/>
    <vehicle id="left_160" type="typeWE" route="left" depart="358" />
    <vehicle id="up_161" type="typeNS" route="up" depart="358" color="1,0,0"/>
    <vehicle id="right_162" type="typeWE" route="right" depart="359" />
    <vehicle id="down_163" type="typeNS" route="down" depart="361" color="1,0,0"/>
    <vehicle id="left_164" type="typeWE" route="left" depart="362" />
    <vehicle id="up_165" type="typeNS" route="up" depart="363" color="1,0,0"/>
    <vehicle id="left_166" type="typeWE" route="left" depart="364" />
    <vehicle id="down_167" type="typeNS" route="down" depart="366" color="1,0,0"/>
    <vehicle id="up_168" type="typeNS" route="up" depart="370" color="1,0,0"/>
    <vehicle id="right_169" type="typeWE" route="right" depart="374" />
    <vehicle id="left_170" type="typeWE" route="left" depart="375" />
    <vehicle id="left_171" type="typeWE" route="left" depart="377" />
    <vehicle id="up_172" type="typeNS" route="up" depart="378" color="1,0,0"/>
    <vehicle id="up_173" type="typeNS" route="up" depart="379" color="1,0,0"/>
    <vehicle id="left_174" type="typeWE" route="left" depart="391" />
    <vehicle id="down_175" type="typeNS" route="down" depart="391" color="1,0,0"/>
    <vehicle id="left_176" type="typeWE" route="left" depart="393" />
    <vehicle id="up_177" type="typeNS" route="up" depart="395" color="1,0,0"/>
    <vehicle id="right_178" type="typeWE" route="right" depart="401" />
    <vehicle id="left_179" type="typeWE" route="left" depart="401" />
    <vehicle id="up_180" type="typeNS" route="up" depart="401" color="1,0,0"/>
    <vehicle id="left_181" type="typeWE" route="left" depart="402" />
    <vehicle id="right_182" type="typeWE" route="right" depart="403" />
    <vehicle id="up_183" type="typeNS" route="up" depart="410" color="1,0,0"/>
    <vehicle id="down_184" type="typeNS" route="down" depart="413" color="1,0,0"/>
    <vehicle id="right_185" type="typeWE" route="right" depart="415" />
    <vehicle id="right_186" type="typeWE" route="right" depart="418" />
    <vehicle id="right_187" type="typeWE" route="right" depart="422" />
    <vehicle id="left_188" type="typeWE" route="left" depart="422" />
    <vehicle id="down_189" type="typeNS" route="down" depart="424" color="1,0,0"/>
    <vehicle id="right_190" type="typeWE" route="right" depart="427" />
    <vehicle id="up_191" type="typeNS" route="up" depart="428" color="1,0,0"/>
    <vehicle id="left_192" type="typeWE" route="left" depart="432" />
    <vehicle id="left_193" type="typeWE" route="left" depart="433" />
    <vehicle id="right_194" type="typeWE" route="right" depart="434" />
    <vehicle id="down_195" type="typeNS" route="down" depart="434" color="1,0,0"/>
    <vehicle id="down_196" type="typeNS" route="down" depart="435" color="1,0,0"/>
    <vehicle id="left_197" type="typeWE" route="left" depart="437" />
    <vehicle id="left_198" type="typeWE" route="left" depart="444" />
    <vehicle id="right_199" type="typeWE" route="right" depart="449" />
    <vehicle id="down_200" type="typeNS" route="down" depart="449" color="1,0,0"/>
    <vehicle id="up_201" type="typeNS" route="up" depart="452" color="1,0,0"/>
    <vehicle id="up_202" type="typeNS" route="up" depart="457" color="1,0,0"/>
    <vehicle id="down_203" type="typeNS" route="down" depart="461" color="1,0,0"/>
    <vehicle id="up_204" type="typeNS" route="up" depart="463" color="1,0,0"/>
    <vehicle id="right_205" type="typeWE" route="right" depart="468" />
    <vehicle id="left_206" type="typeWE" route="left" depart="472" />
    <vehicle id="down_207" type="typeNS" route="down" depart="472" color="1,0,0"/>
    <vehicle id="right_208" type="typeWE" route="right" depart="474" />
    <vehicle id="up_209" type="typeNS" route="up" depart="475" color="1,0,0"/>
    <vehicle id="down_210" type="typeNS" route="down" depart="478" color="1,0,0"/>
    <vehicle id="left_211" type="typeWE" route="left" depart="480" />
    <vehicle id="down_212" type="typeNS" route="down" depart="488" color="1,0,0"/>
    <vehicle id="down_213" type="typeNS" route="down" depart="493" color="1,0,0"/>
    <vehicle id="up_214" type="typeNS" route="up" depart="493" color="1,0,0"/>
    <vehicle id="left_215" type="typeWE" route="left" depart="496" />
    <vehicle id="right_216" type="typeWE" route="right" depart="497" />
    <vehicle id="right_217" type="typeWE" route="right" depart="498" />
    <vehicle id="left_218" type="typeWE" route="left" depart="505" />
    <vehicle id="right_219" type="typeWE" route="right" depart="506" />
    <vehicle id="right_220" type="typeWE" route="right" depart="509" />
    <vehicle id="right_221" type="typeWE" route="right" depart="510" />
    <vehicle id="up_222" type="typeNS" route="up" depart="512" color="1,0,0"/>
    <vehicle id="left_223" type="typeWE" route="left" depart="513" />
    <vehicle id="right_224" type="typeWE" route="right" depart="515" />
    <vehicle id="left_225" type="typeWE" route="left" depart="515" />
    <vehicle id="left_226" type="typeWE" route="left" depart="520" />
    <vehicle id="up_227" type="typeNS" route="up" depart="521" color="1,0,0"/>
    <vehicle id="down_228" type="typeNS" route="down" depart="525" color="1,0,0"/>
    <vehicle id="right_229" type="typeWE" route="right" depart="526" />
    <vehicle id="down_230" type="typeNS" route="down" depart="527" color="1,0,0"/>
    <vehicle id="left_231" type="typeWE" route="left" depart="533" />
    <vehicle id="left_232" type="typeWE" route="left" depart="534" />
    <vehicle id="right_233" type="typeWE" route="right" depart="535" />
    <vehicle id="down_234" type="typeNS" route="down" depart="537" color="1,0,0"/>
    <vehicle id="right_235" type="typeWE" route="right" depart="541" />
    <vehicle id="down_236" type="typeNS" route="down" depart="543" color="1,0,0"/>
    <vehicle id="left_237" type="typeWE" route="left" depart="546" />
    <vehicle id="up_238" type="typeNS" route="up" depart="546" color="1,0,0"/>
    <vehicle id="right_239" type="typeWE" route="right" depart="548" />
    <vehicle id="right_240" type="typeWE" route="right" depart="552" />
    <vehicle id="right_241" type="typeWE" route="right" depart="560" />
    <vehicle id="left_242" type="typeWE" route="left" depart="560" />
    <vehicle id="right_243" type="typeWE" route="right" depart="562" />
    <vehicle id="down_244" type="typeNS" route="down" depart="563" color="1,0,0"/>
    <vehicle id="right_245" type="typeWE" route="right" depart="565" />
    <vehicle id="down_246" type="typeNS" route="down" depart="573" color="1,0,0"/>
    <vehicle id="up_247" type="typeNS" route="up" depart="575" color="1,0,0"/>
    <vehicle id="left_248" type="typeWE" route="left" depart="577" />
    <vehicle id="up_249" type="typeNS" route="up" depart="583" color="1,0,0"/>
    <vehicle id="up_250" type="typeNS" route="up" depart="587" color="1,0,0"/>
    <vehicle id="left_251" type="typeWE" route="left" depart="588" />
    <vehicle id="right_252" type="typeWE" route="right" depart="589" />
    <vehicle id="up_253" type="typeNS" route="up" depart="592" color="1,0,0"/>
    <vehicle id="right_254" type="typeWE" route="right" depart="596" />
    <vehicle id="left_255" type="typeWE" route="left" depart="597" />
    <vehicle id="up_256" type="typeNS" route="up" depart="597" color="1,0,0"/>
    <vehicle id="right_257" type="typeWE" route="right" depart="599" />
    <vehicle id="right_258" type="typeWE" route="right" depart="603" />
    <vehicle id="left_259" type="typeWE" route="left" depart="604" />
    <vehicle id="up_260" type="typeNS" route="up" depart="605" color="1,0,0"/>
    <vehicle id="up_261" type="typeNS" route="up" depart="617" color="1,0,0"/>
    <vehicle id="up_262" type="typeNS" route="up" depart="621" color="1,0,0"/>
    <vehicle id="down_263" type="typeNS" route="down" depart="628" color="1,0,0"/>
    <vehicle id="down_264" type="typeNS" route="down" depart="629" color="1,0,0"/>
    <vehicle id="down_265" type="typeNS" route="down" depart="632" color="1,0,0"/>
    <vehicle id="right_266" type="typeWE" route="right" depart="634" />
    <vehicle id="left_267" type="typeWE" route="left" depart="641" />
    <vehicle id="down_268" type="typeNS" route="down" depart="641" color="1,0,0"/>
    <vehicle id="down_269" type="typeNS" route="down" depart="642" color="1,0,0"/>
    <vehicle id="right_270" type="typeWE" route="right" depart="644" />
    <vehicle id="left_271" type="typeWE" route="left" depart="644" />
    <vehicle id="up_272" type="typeNS" route="up" depart="644" color="1,0,0"/>
    <vehicle id="left_273" type="typeWE" route="left" depart="645" />
    <vehicle id="down_274" type="typeNS" route="down" depart="646" color="1,0,0"/>
    <vehicle id="left_275" type="typeWE" route="left" depart="647" />
    <vehicle id="up_276" type="typeNS" route="up" depart="649" color="1,0,0"/>
    <vehicle id="left_277" type="typeWE" route="left" depart="653" />
    <vehicle id="up_278" type="typeNS" route="up" depart="653" color="1,0,0"/>
    <vehicle id="right_279" type="typeWE" route="right" depart="654" />
    <vehicle id="left_280" type="typeWE" route="left" depart="654" />
    <vehicle id="down_281" type="typeNS" route="down" depart="655" color="1,0,0"/>
    <vehicle id="left_282" type="typeWE" route="left" depart="660" />
    <vehicle id="up_283" type="typeNS" route="up" depart="662" color="1,0,0"/>
    <vehicle id="up_284" type="typeNS" route="up" depart="669" color="1,0,0"/>
    <vehicle id="up_285" type="typeNS" route="up" depart="671" color="1,0,0"/>
    <vehicle id="up_286" type="typeNS" route="up" depart="676" color="1,0,0"/>
    <vehicle id="up_287" type="typeNS" route="up" depart="679" color="1,0,0"/>
    <vehicle id="up_288" type="typeNS" route="up" depart="680" color="1,0,0"/>
    <vehicle id="right_289" type="typeWE" route="right" depart="685" />
    <vehicle id="down_290" type="typeNS" route="down" depart="685" color="1,0,0"/>
    <vehicle id="right_291" type="typeWE" route="right" depart="687" />
    <vehicle id="left_292" type="typeWE" route="left" depart="689" />
    <vehicle id="up_293" type="typeNS" route="up" depart="689" color="1,0,0"/>
    <vehicle id="left_294" type="typeWE" route="left" depart="692" />
    <vehicle id="right_295" type="typeWE" route="right" depart="694" />
    <vehicle id="left_296" type="typeWE" route="left" depart="694" />
    <vehicle id="left_297" type="typeWE" route="left" depart="703" />
    <vehicle id="down_298" type="typeNS" route="down" depart="703" color="1,0,0"/>
    <vehicle id="left_299" type="typeWE" route="left" depart="704" />
    <vehicle id="down_300" type="typeNS" route="down" depart="707" color="1,0,0"/>
    <vehicle id="left_301" type="typeWE" route="left" depart="712" />
    <vehicle id="right_302" type="typeWE" route="right" depart="715" />
    <vehicle id="down_303" type="typeNS" route="down" depart="715" color="1,0,0"/>
    <vehicle id="up_304" type="typeNS" route="up" depart="715" color="1,0,0"/>
    <vehicle id="right_305" type="typeWE" route="right" depart="719" />
    <vehicle id="down_306" type="typeNS" route="down" depart="722" color="1,0,0"/>
    <vehicle id="down_307" type="typeNS" route="down" depart="723" color="1,0,0"/>
    <vehicle id="down_308" type="typeNS" route="down" depart="725" color="1,0,0"/>
    <vehicle id="up_309" type="typeNS" route="up" depart="725" color="1,0,0"/>
    <vehicle id="left_310" type="typeWE" route="left" depart="727" />
    <vehicle id="left_311" type="typeWE" route="left" depart="729" />
    <vehicle id="right_312" type="typeWE" route="right" depart="731" />
    <vehicle id="right_313" type="typeWE" route="right" depart="734" />
    <vehicle id="up_314" type="typeNS" route="up" depart="734" color="1,0,0"/>
    <vehicle id="up_315" type="typeNS" route="up" depart="742" color="1,0,0"/>
    <vehicle id="up_316" type="typeNS" route="up" depart="746" color="1,0,0"/>
    <vehicle id="down_317" type="typeNS" route="down" depart="749" color="1,0,0"/>
    <vehicle id="up_318" type="typeNS" route="up" depart="750" color="1,0,0"/>
    <vehicle id="left_319" type="typeWE" route="left" depart="753" />
    <vehicle id="up_320" type="typeNS" route="up" depart="754" color="1,0,0"/>
    <vehicle id="down_321" type="typeNS" route="down" depart="755" color="1,0,0"/>
    <vehicle id="down_322" type="typeNS" route="down" depart="757" color="1,0,0"/>
    <vehicle id="left_323" type="typeWE" route="left" depart="758" />
    <vehicle id="right_324" type="typeWE" route="right" depart="760" />
    <vehicle id="down_325" type="typeNS" route="down" depart="763" color="1,0,0"/>
    <vehicle id="right_326" type="typeWE" route="right" depart="765" />
    <vehicle id="right_327" type="typeWE" route="right" depart="766" />
    <vehicle id="right_328" type="typeWE" route="right" depart="770" />
    <vehicle id="left_329" type="typeWE" route="left" depart="774" />
    <vehicle id="up_330" type="typeNS" route="up" depart="774" color="1,0,0"/>
    <vehicle id="right_331" type="typeWE" route="right" depart="777" />
    <vehicle id="down_332" type="typeNS" route="down" depart="777" color="1,0,0"/>
    <vehicle id="right_333" type="typeWE" route="right" depart="778" />
    <vehicle id="right_334" type="typeWE" route="right" depart="779" />
    <vehicle id="up_335" type="typeNS" route="up" depart="785" color="1,0,0"/>
    <vehicle id="down_336" type="typeNS" route="down" depart="786" color="1,0,0"/>
    <vehicle id="down_337" type="typeNS" route="down" depart="787" color="1,0,0"/>
    <vehicle id="down_338" type="typeNS" route="down" depart="792" color="1,0,0"/>
    <vehicle id="left_339" type="typeWE" route="left" depart="793" />
    <vehicle id="left_340" type="typeWE" route="left" depart="798" />
    <vehicle id="up_341" type="typeNS" route="up" depart="799" color="1,0,0"/>
    <vehicle id="down_342" type="typeNS" route="down" depart="802" color="1,0,0"/>
    <vehicle id="up_343" type="typeNS" route="up" depart="802" color="1,0,0"/>
    <vehicle id="up_344" type="typeNS" route="up" depart="804" color="1,0,0"/>
    <vehicle id="right_345" type="typeWE" route="right" depart="806" />
    <vehicle id="up_346" type="typeNS" route="up" depart="807" color="1,0,0"/>
    <vehicle id="down_347" type="typeNS" route="down" depart="811" color="1,0,0"/>
    <vehicle id="down_348" type="typeNS" route="down" depart="813" color="1,0,0"/>
    <vehicle id="down_349" type="typeNS" route="down" depart="818" color="1,0,0"/>
    <vehicle id="left_350" type="typeWE" route="left" depart="821" />
    <vehicle id="up_351" type="typeNS" route="up" depart="821" color="1,0,0"/>
    <vehicle id="down_352" type="typeNS" route="down" depart="823" color="1,0,0"/>
    <vehicle id="down_353" type="typeNS" route="down" depart="824" color="1,0,0"/>
    <vehicle id="right_354" type="typeWE" route="right" depart="826" />
    <vehicle id="left_355" type="typeWE" route="left" depart="826" />
    <vehicle id="up_356" type="typeNS" route="up" depart="827" color="1,0,0"/>
    <vehicle id="left_357" type="typeWE" route="left" depart="828" />
    <vehicle id="up_358" type="typeNS" route="up" depart="829" color="1,0,0"/>
    <vehicle id="up_359" type="typeNS" route="up" depart="830" color="1,0,0"/>
    <vehicle id="down_360" type="typeNS" route="down" depart="832" color="1,0,0"/>
    <vehicle id="down_361" type="typeNS" route="down" depart="833" color="1,0,0"/>
    <vehicle id="up_362" type="typeNS" route="up" depart="835" color="1,0,0"/>
    <vehicle id="down_363" type="typeNS" route="down" depart="839" color="1,0,0"/>
    <vehicle id="up_364" type="typeNS" route="up" depart="842" color="1,0,0"/>
    <vehicle id="down_365" type="typeNS" route="down" depart="845" color="1,0,0"/>
    <vehicle id="right_366" type="typeWE" route="right" depart="846" />
    <vehicle id="right_367" type="typeWE" route="right" depart="848" />
    <vehicle id="right_368" type="typeWE" route="right" depart="849" />
    <vehicle id="right_369" type="typeWE" route="right" depart="854" />
    <vehicle id="left_370" type="typeWE" route="left" depart="854" />
    <vehicle id="up_371" type="typeNS" route="up" depart="855" color="1,0,0"/>
    <vehicle id="up_372" type="typeNS" route="up" depart="860" color="1,0,0"/>
    <vehicle id="up_373" type="typeNS" route="up" depart="862" color="1,0,0"/>
    <vehicle id="right_374" type="typeWE" route="right" depart="863" />
    <vehicle id="right_375" type="typeWE" route="right" depart="864" />
    <vehicle id="left_376" type="typeWE" route="left" depart="864" />
    <vehicle id="left_377" type="typeWE" route="left" depart="866" />
    <vehicle id="right_378" type="typeWE" route="right" depart="870" />
    <vehicle id="right_379" type="typeWE" route="right" depart="874" />
    <vehicle id="down_380" type="typeNS" route="down" depart="875" color="1,0,0"/>
    <vehicle id="left_381" type="typeWE" route="left" depart="878" />
    <vehicle id="right_382" type="typeWE" route="right" depart="883" />
    <vehicle id="down_383" type="typeNS" route="down" depart="884" color="1,0,0"/>
    <vehicle id="left_384" type="typeWE" route="left" depart="886" />
    <vehicle id="right_385" type="typeWE" route="right" depart="890" />
    <vehicle id="left_386" type="typeWE" route="left" depart="890" />
    <vehicle id="down_387" type="typeNS" route="down" depart="891" color="1,0,0"/>
    <vehicle id="down_388" type="typeNS" route="down" depart="894" color="1,0,0"/>