<routes>
            <vType id="typeWE" accel="0.8" decel="4.5" sigma="0.5" length="5" minGap="2.5" maxSpeed="16.67" guiShape="passenger"/>
            <vType id="typeNS" accel="0.8" decel="4.5" sigma="0.5" length="7" minGap="3" maxSpeed="25" guiShape="bus"/>
            <route id="right" edges="51o 1i 2o 52i" />
            <route id="left" edges="52o 2i 1o 51i" />
            <route id="up" edges="53o 3i 4o 54i" />
            <route id="down" edges="54o 4i 3o 53i" />
    <vehicle id="left_0" type="typeWE" route="left" depart="3" />
    <vehicle id="down_1" type="typeNS" route="down" depart="3" color="1,0,0"/>
    <vehicle id="up_2" type="typeNS" route="up" depart="3" color="1,0,0"/>
    <vehicle id="down_3" type="typeNS" route="down" depart="5" color="1,0,0"/>
    <vehicle id="right_4" type="typeWE" route="right" depart="6" />
    <vehicle id="left_5" type="typeWE" route="left" depart="7" />
    <vehicle id="up_6" type="typeNS" route="up" depart="9" color="1,0,0"/>
    <vehicle id="right_7" type="typeWE" route="right" depart="14" />
    <vehicle id="up_8" type="typeNS" route="up" depart="14" color="1,0,0"/>
    <vehicle id="down_9" type="typeNS" route="down" depart="20" color="1,0,0"/>
    <vehicle id="right_10" type="typeWE" route="right" depart="27" />
    <vehicle id="up_11" type="typeNS" route="up" depart="29" color="1,0,0"/>
    <vehicle id="right_12" type="typeWE" route="right" depart="33" />
    <vehicle id="up_13" type="typeNS" route="up" depart="34" color="1,0,0"/>
    <vehicle id="right_14" type="typeWE" route="right" depart="35" />
    <vehicle id="up_15" type="typeNS" route="up" depart="45" color="1,0,0"/>
    <vehicle id="right_16" type="typeWE" route="right" depart="46" />
    <vehicle id="up_17" type="typeNS" route="up" depart="46" color="1,0,0"/>
    <vehicle id="up_18" type="typeNS" route="up" depart="50" color="1,0,0"/>
    <vehicle id="right_19" type="typeWE" route="right" depart="53" />
    <vehicle id="down_20" type="typeNS" route="down" depart="53" color="1,0,0"/>
    <vehicle id="left_21" type="typeWE" route="left" depart="55" />
    <vehicle id="right_22" type="typeWE" route="right" depart="57" />
    <vehicle id="up_23" type="typeNS" route="up" depart="57" color="1,0,0"/>
    <vehicle id="up_24" type="typeNS" route="up" depart="61" color="1,0,0"/>
    <vehicle id="right_25" type="typeWE" route="right" depart="62" />
    <vehicle id="right_26" type="typeWE" route="right" depart="67" />
    <vehicle id="left_27" type="typeWE" route="left" depart="68" />
    <vehicle id="left_28" type="typeWE" route="left" depart="74" />
    <vehicle id="right_29" type="typeWE" route="right" depart="77" />
    <vehicle id="left_30" type="typeWE" route="left" depart="77" />
    <vehicle id="right_31" type="typeWE" route="right" depart="80" />
    <vehicle id="left_32" type="typeWE" route="left" depart="80" />
    <vehicle id="up_33" type="typeNS" route="up" depart="80" color="1,0,0"/>
    <vehicle id="left_34" type="typeWE" route="left" depart="81" />
    <vehicle id="left_35" type="typeWE" route="left" depart="84" />
    <vehicle id="down_36" type="typeNS" route="down" depart="85" color="1,0,0"/>
    <vehicle id="up_37" type="typeNS" route="up" depart="86" color="1,0,0"/>
    <vehicle id="right_38" type="typeWE" route="right" depart="91" />
    <vehicle id="right_39" type="typeWE" route="right" depart="92" />
    <vehicle id="down_40" type="typeNS" route="down" depart="94" color="1,0,0"/>
    <vehicle id="left_41" type="typeWE" route="left" depart="105" />
    <vehicle id="right_42" type="typeWE" route="right" depart="109" />
    <vehicle id="left_43" type="typeWE" route="left" depart="111" />
    <vehicle id="down_44" type="typeNS" route="down" depart="112" color="1,0,0"/>
    <vehicle id="left_45" type="typeWE" route="left" depart="117" />
    <vehicle id="left_46" type="typeWE" route="left" depart="118" />
    <vehicle id="down_47" type="typeNS" route="down" depart="127" color="1,0,0"/>
    <vehicle id="left_48" type="typeWE" route="left" depart="129" />
    <vehicle id="right_49" type="typeWE" route="right" depart="130" />
    <vehicle id="down_50" type="typeNS" route="down" depart="130" color="1,0,0"/>
    <vehicle id="up_51" type="typeNS" route="up" depart="131" color="1,0,0"/>
    <vehicle id="left_52" type="typeWE" route="left" depart="133" />
    <vehicle id="up_53" type="typeNS" route="up" depart="134" color="1,0,0"/>
    <vehicle id="down_54" type="typeNS" route="down" depart="140" color="1,0,0"/>
    <vehicle id="right_55" type="typeWE" route="right" depart="141" />
    <vehicle id="down_56" type="typeNS" route="down" depart="141" color="1,0,0"/>
    <vehicle id="left_57" type="typeWE" route="left" depart="144" />
    <vehicle id="right_58" type="typeWE" route="right" depart="146" />
    <vehicle id="up_59" type="typeNS" route="up" depart="147" color="1,0,0"/>
    <vehicle id="up_60" type="typeNS" route="up" depart="153" color="1,0,0"/>
    <vehicle id="right_61" type="typeWE" route="right" depart="156" />
    <vehicle id="down_62" type="typeNS" route="down" depart="156" color="1,0,0"/>
    <vehicle id="up_63" type="typeNS" route="up" depart="158" color="1,0,0"/>
    <vehicle id="up_64" type="typeNS" route="up" depart="159" color="1,0,0"/>
    <vehicle id="up_65" type="typeNS" route="up" depart="162" color="1,0,0"/>
    <vehicle id="left_66" type="typeWE" route="left" depart="166" />
    <vehicle id="right_67" type="typeWE" route="right" depart="171" />
    <vehicle id="down_68" type="typeNS" route="down" depart="172" color="1,0,0"/>
    <vehicle id="up_69" type="typeNS" route="up" depart="173" color="1,0,0"/>
    <vehicle id="right_70" type="typeWE" route="right" depart="174" />
    <vehicle id="down_71" type="typeNS" route="down" depart="174" color="1,0,0"/>
    <vehicle id="right_72" type="typeWE" route="right" depart="175" />
    <vehicle id="left_73" type="typeWE" route="left" depart="175" />
    <vehicle id="left_74" type="typeWE" route="left" depart="176" />
    <vehicle id="up_75" type="typeNS" route="up" depart="179" color="1,0,0"/>
    <vehicle id="left_76" type="typeWE" route="left" depart="181" />
    <vehicle id="right_77" type="typeWE" route="right" depart="183" />
    <vehicle id="down_78" type="typeNS" route="down" depart="187" color="1,0,0"/>
    <vehicle id="right_79" type="typeWE" route="right" depart="189" />
    <vehicle id="left_80" type="typeWE" route="left" depart="189" />
    <vehicle id="right_81" type="typeWE" route="right" depart="190" />
    <vehicle id="up_82" type="typeNS" route="up" depart="190" color="1,0,0"/>
    <vehicle id="right_83" type="typeWE" route="right" depart="192" />
    <vehicle id="up_84" type="typeNS" route="up" depart="193" color="1,0,0"/>
    <vehicle id="right_85" type="typeWE" route="right" depart="197" />
    <vehicle id="up_86" type="typeNS" route="up" depart="197" color="1,0,0"/>
    <vehicle id="up_87" type="typeNS" route="up" depart="198" color="1,0,0"/>
    <vehicle id="left_88" type="typeWE" route="left" depart="199" />
    <vehicle id="left_89" type="typeWE" route="left" depart="204" />
    <vehicle id="up_90" type="typeNS" route="up" depart="208" color="1,0,0"/>
    <vehicle id="right_91" type="typeWE" route="right" depart="214" />
    <vehicle id="up_92" type="typeNS" route="up" depart="216" color="1,0,0"/>
    <vehicle id="left_93" type="typeWE" route="left" depart="220" />
    <vehicle id="up_94" type="typeNS" route="up" depart="220" color="1,0,0"/>
    <vehicle id="left_95" type="typeWE" route="left" depart="221" />
    <vehicle id="down_96" type="typeNS" route="down" depart="222" color="1,0,0"/>
    <vehicle id="left_97" type="typeWE" route="left" depart="227" />
    <vehicle id="down_98" type="typeNS" route="down" depart="233" color="1,0,0"/>
    <vehicle id="left_99" type="typeWE" route="left" depart="234" />
    <vehicle id="down_100" type="typeNS" route="down" depart="235" color="1,0,0"/>
    <vehicle id="left_101" type="typeWE" route="left" depart="242" />
    <vehicle id="up_102" type="typeNS" route="up" depart="242" color="1,0,0"/>
    <vehicle id="left_103" type="typeWE" route="left" depart="243" />
    <vehicle id="left_104" type="typeWE" route="left" depart="244" />
    <vehicle id="right_105" type="typeWE" route="right" depart="245" />
    <vehicle id="left_106" type="typeWE" route="left" depart="249" />
    <vehicle id="right_107" type="typeWE" route="right" depart="251" />
    <vehicle id="up_108" type="typeNS" route="up" depart="252" color="1,0,0"/>
    <vehicle id="right_109" type="typeWE" route="right" depart="253" />
    <vehicle id="down_110" type="typeNS" route="down" depart="253" color="1,0,0"/>
    <vehicle id="up_111" type="typeNS" route="up" depart="253" color="1,0,0"/>
    <vehicle id="left_112" type="typeWE" route="left" depart="256" />
    <vehicle id="left_113" type="typeWE" route="left" depart="257" />
    <vehicle id="down_114" type="typeNS" route="down" depart="258" color="1,0,0"/>
    <vehicle id="up_115" type="typeNS" route="up" depart="258" color="1,0,0"/>
    <vehicle id="down_116" type="typeNS" route="down" depart="259" color="1,0,0"/>
    <vehicle id="left_117" type="typeWE" route="left" depart="261" />
    <vehicle id="up_118" type="typeNS" route="up" depart="265" color="1,0,0"/>
    <vehicle id="up_119" type="typeNS" route="up" depart="266" color="1,0,0"/>
    <vehicle id="up_120" type="typeNS" route="up" depart="269" color="1,0,0"/>
    <vehicle id="up_121" type="typeNS" route="up" depart="275" color="1,0,0"/>
    <vehicle id="right_122" type="typeWE" route="right" depart="276" />
    <vehicle id="up_123" type="typeNS" route="up" depart="276" color="1,0,0"/>
    <vehicle id="down_124" type="typeNS" route="down" depart="277" color="1,0,0"/>
    <vehicle id="left_125" type="typeWE" route="left" depart="279" />
    <vehicle id="right_126" type="typeWE" route="right" depart="281" />
    <vehicle id="down_127" type="typeNS" route="down" depart="289" color="1,0,0"/>
    <vehicle id="up_128" type="typeNS" route="up" depart="293" color="1,0,0"/>
    <vehicle id="down_129" type="typeNS" route="down" depart="294" color="1,0,0"/>
    <vehicle id="up_130" type="typeNS" route="up" depart="296" color="1,0,0"/>
    <vehicle id="right_131" type="typeWE" route="right" depart="298" />
    <vehicle id="right_132" type="typeWE" route="right" depart="299" />
    <vehicle id="down_133" type="typeNS" route="down" depart="299" color="1,0,0"/>
    <vehicle id="right_134" type="typeWE" route="right" depart="302" />
    <vehicle id="left_135" type="typeWE" route="left" depart="302" />
    <vehicle id="up_136" type="typeNS" route="up" depart="305" color="1,0,0"/>
    <vehicle id="left_137" type="typeWE" route="left" depart="306" />
    <vehicle id="down_138" type="typeNS" route="down" depart="308" color="1,0,0"/>
    <vehicle id="left_139" type="typeWE" route="left" depart="311" />
    <vehicle id="up_140" type="typeNS" route="up" depart="311" color="1,0,0"/>
    <vehicle id="down_141" type="typeNS" route="down" depart="313" color="1,0,0"/>
    <vehicle id="left_142" type="typeWE" route="left" depart="316" />
    <vehicle id="down_143" type="typeNS" route="down" depart="316" color="1,0,0"/>
    <vehicle id="down_144" type="typeNS" route="down" depart="317" color="1,0,0"/>
    <vehicle id="left_145" type="typeWE" route="left" depart="322" />
    <vehicle id="down_146" type="typeNS" route="down" depart="332" color="1,0,0"/>
    <vehicle id="up_147" type="typeNS" route="up" depart="332" color="1,0,0"/>
    <vehicle id="down_148" type="typeNS" route="down" depart="333" color="1,0,0"/>
    <vehicle id="right_149" type="typeWE" route="right" depart="336" />
    <vehicle id="down_150" type="typeNS" route="down" depart="338" color="1,0,0"/>
    <vehicle id="down_151" type="typeNS" route="down" depart="340" color="1,0,0"/>
    <vehicle id="right_152" type="typeWE" route="right" depart="344" />
    <vehicle id="right_153" type="typeWE" route="right" depart="346" />
    <vehicle id="down_154" type="typeNS" route="down" depart="347" color="1,0,0"/>
    <vehicle id="up_155" type="typeNS" route="up" depart="348" color="1,0,0"/>
    <vehicle id="left_156" type="typeWE" route="left" depart="349" />
    <vehicle id="up_157" type="typeNS" route="up" depart="349" color="1,0,0"/>
    <vehicle id="left_158" type="typeWE" route="left" depart="351" />
    <vehicle id="down_159" type="typeNS" route="down" depart="351" color="1,0,0"/>
    <vehicle id="right_160" type="typeWE" route="right" depart="356" />
    <vehicle id="left_161" type="typeWE" route="left" depart="362" />
    <vehicle id="right_162" type="typeWE" route="right" depart="365" />
    <vehicle id="right_163" type="typeWE" route="right" depart="366" />
    <vehicle id="left_164" type="typeWE" route="left" depart="369" />
    <vehicle id="right_165" type="typeWE" route="right" depart="370" />
    <vehicle id="left_166" type="typeWE" route="left" depart="370" />
    <vehicle id="down_167" type="typeNS" route="down" depart="370" color="1,0,0"/>
    <vehicle id="up_168" type="typeNS" route="up" depart="371" color="1,0,0"/>
    <vehicle id="up_169" type="typeNS" route="up" depart="373" color="1,0,0"/>
    <vehicle id="down_170" type="typeNS" route="down" depart="374" color="1,0,0"/>
    <vehicle id="right_171" type="typeWE" route="right" depart="375" />
    <vehicle id="down_172" type="typeNS" route="down" depart="378" color="1,0,0"/>
    <vehicle id="down_173" type="typeNS" route="down" depart="380" color="1,0,0"/>
    <vehicle id="up_174" type="typeNS" route="up" depart="380" color="1,0,0"/>
    <vehicle id="right_175" type="typeWE" route="right" depart="384" />
    <vehicle id="right_176" type="typeWE" route="right" depart="386" />
    <vehicle id="down_177" type="typeNS" route="down" depart="389" color="1,0,0"/>
    <vehicle id="up_178" type="typeNS" route="up" depart="391" color="1,0,0"/>
    <vehicle id="up_179" type="typeNS" route="up" depart="396" color="1,0,0"/>
    <vehicle id="down_180" type="typeNS" route="down" depart="401" color="1,0,0"/>
    <vehicle id="up_181" type="typeNS" route="up" depart="406" color="1,0,0"/>
    <vehicle id="right_182" type="typeWE" route="right" depart="407" />
    <vehicle id="left_183" type="typeWE" route="left" depart="410" />
    <vehicle id="right_184" type="typeWE" route="right" depart="412" />
    <vehicle id="down_185" type="typeNS" route="down" depart="412" color="1,0,0"/>
    <vehicle id="down_186" type="typeNS" route="down" depart="413" color="1,0,0"/>
    <vehicle id="left_187" type="typeWE" route="left" depart="415" />
    <vehicle id="down_188" type="typeNS" route="down" depart="416" color="1,0,0"/>
    <vehicle id="right_189" type="typeWE" route="right" depart="417" />
    <vehicle id="down_190" type="typeNS" route="down" depart="418" color="1,0,0"/>
    <vehicle id="left_191" type="typeWE" route="left" depart="424" />
    <vehicle id="down_192" type="typeNS" route="down" depart="427" color="1,0,0"/>
    <vehicle id="right_193" type="typeWE" route="right" depart="428" />
    <vehicle id="up_194" type="typeNS" route="up" depart="428" color="1,0,0"/>
    <vehicle id="left_195" type="typeWE" route="left" depart="435" />
    <vehicle id="left_196" type="typeWE" route="left" depart="436" />
    <vehicle id="right_197" type="typeWE" route="right" depart="440" />
    <vehicle id="down_198" type="typeNS" route="down" depart="443" color="1,0,0"/>
    <vehicle id="up_199" type="typeNS" route="up" depart="443" color="1,0,0"/>
    <vehicle id="right_200" type="typeWE" route="right" depart="445" />
    <vehicle id="left_201" type="typeWE" route="left" depart="446" />
    <vehicle id="right_202" type="typeWE" route="right" depart="449" />
    <vehicle id="down_203" type="typeNS" route="down" depart="452" color="1,0,0"/>
    <vehicle id="up_204" type="typeNS" route="up" depart="455" color="1,0,0"/>
    <vehicle id="right_205" type="typeWE" route="right" depart="456" />
    <vehicle id="down_206" type="typeNS" route="down" depart="456" color="1,0,0"/>
    <vehicle id="up_207" type="typeNS" route="up" depart="456" color="1,0,0"/>
    <vehicle id="up_208" type="typeNS" route="up" depart="461" color="1,0,0"/>
    <vehicle id="right_209" type="typeWE" route="right" depart="462" />
    <vehicle id="down_210" type="typeNS" route="down" depart="467" color="1,0,0"/>
    <vehicle id="up_211" type="typeNS" route="up" depart="467" color="1,0,0"/>
    <vehicle id="up_212" type="typeNS" route="up" depart="469" color="1,0,0"/>
    <vehicle id="up_213" type="typeNS" route="up" depart="470" color="1,0,0"/>
    <vehicle id="left_214" type="typeWE" route="left" depart="471" />
    <vehicle id="right_215" type="typeWE" route="right" depart="473" />
    <vehicle id="up_216" type="typeNS" route="up" depart="474" color="1,0,0"/>
    <vehicle id="right_217" type="typeWE" route="right" depart="476" />
    <vehicle id="down_218" type="typeNS" route="down" depart="477" color="1,0,0"/>
    <vehicle id="down_219" type="typeNS" route="down" depart="478" color="1,0,0"/>
    <vehicle id="down_220" type="typeNS" route="down" depart="481" color="1,0,0"/>
    <vehicle id="down_221" type="typeNS" route="down" depart="482" color="1,0,0"/>
    <vehicle id="down_222" type="typeNS" route="down" depart="484" color="1,0,0"/>
    <vehicle id="left_223" type="typeWE" route="left" depart="487" />
    <vehicle id="right_224" type="typeWE" route="right" depart="492" />
    <vehicle id="left_225" type="typeWE" route="left" depart="495" />
    <vehicle id="up_226" type="typeNS" route="up" depart="496" color="1,0,0"/>
    <vehicle id="right_227" type="typeWE" route="right" depart="501" />
    <vehicle id="right_228" type="typeWE" route="right" depart="505" />
    <vehicle id="up_229" type="typeNS" route="up" depart="505" color="1,0,0"/>
    <vehicle id="up_230" type="typeNS" route="up" depart="509" color="1,0,0"/>
    <vehicle id="left_231" type="typeWE" route="left" depart="511" />
    <vehicle id="up_232" type="typeNS" route="up" depart="511" color="1,0,0"/>
    <vehicle id="left_233" type="typeWE" route="left" depart="518" />
    <vehicle id="up_234" type="typeNS" route="up" depart="518" color="1,0,0"/>
    <vehicle id="left_235" type="typeWE" route="left" depart="522" />
    <vehicle id="left_236" type="typeWE" route="left" depart="523" />
    <vehicle id="up_237" type="typeNS" route="up" depart="523" color="1,0,0"/>
    <vehicle id="right_238" type="typeWE" route="right" depart="526" />
    <vehicle id="left_239" type="typeWE" route="left" depart="533" />
    <vehicle id="up_240" type="typeNS" route="up" depart="542" color="1,0,0"/>
    <vehicle id="up_241" type="typeNS" route="up" depart="545" color="1,0,0"/>
    <vehicle id="right_242" type="typeWE" route="right" depart="548" />
    <vehicle id="right_243" type="typeWE" route="right" depart="553" />
    <vehicle id="up_244" type="typeNS" route="up" depart="557" color="1,0,0"/>
    <vehicle id="left_245" type="typeWE" route="left" depart="559" />
    <vehicle id="down_246" type="typeNS" route="down" depart="560" color="1,0,0"/>
    <vehicle id="left_247" type="typeWE" route="left" depart="563" />
    <vehicle id="left_248" type="typeWE" route="left" depart="565" />
    <vehicle id="down_249" type="typeNS" route="down" depart="565" color="1,0,0"/>
    <vehicle id="left_250" type="typeWE" route="left" depart="568" />
    <vehicle id="up_251" type="typeNS" route="up" depart="568" color="1,0,0"/>
    <vehicle id="down_252" type="typeNS" route="down" depart="574" color="1,0,0"/>
    <vehicle id="up_253" type="typeNS" route="up" depart="574" color="1,0,0"/>
    <vehicle id="left_254" type="typeWE" route="left" depart="577" />
    <vehicle id="right_255" type="typeWE" route="right" depart="578" />
    <vehicle id="left_256" type="typeWE" route="left" depart="584" />
    <vehicle id="left_257" type="typeWE" route="left" depart="596" />
    <vehicle id="up_258" type="typeNS" route="up" depart="609" color="1,0,0"/>
    <vehicle id="left_259" type="typeWE" route="left" depart="610" />
    <vehicle id="right_260" type="typeWE" route="right" depart="617" />
    <vehicle id="down_261" type="typeNS" route="down" depart="619" color="1,0,0"/>
    <vehicle id="up_262" type="typeNS" route="up" depart="623" color="1,0,0"/>
    <vehicle id="right_263" type="typeWE" route="right" depart="626" />
    <vehicle id="left_264" type="typeWE" route="left" depart="634" />
    <vehicle id="up_265" type="typeNS" route="up" depart="635" color="1,0,0"/>
    <vehicle id="down_266" type="typeNS" route="down" depart="639" color="1,0,0"/>
    <vehicle id="right_267" type="typeWE" route="right" depart="640" />
    <vehicle id="left_268" type="typeWE" route="left" depart="642" />
    <vehicle id="up_269" type="typeNS" route="up" depart="642" color="1,0,0"/>
    <vehicle id="right_270" type="typeWE" route="right" depart="646" />
    <vehicle id="up_271" type="typeNS" route="up" depart="648" color="1,0,0"/>
    <vehicle id="up_272" type="typeNS" route="up" depart="649" color="1,0,0"/>
    <vehicle id="down_273" type="typeNS" route="down" depart="651" color="1,0,0"/>
    <vehicle id="up_274" type="typeNS" route="up" depart="658" color="1,0,0"/>
    <vehicle id="left_275" type="typeWE" route="left" depart="662" />
    <vehicle id="right_276" type="typeWE" route="right" depart="667" />
    <vehicle id="down_277" type="typeNS" route="down" depart="671" color="1,0,0"/>
    <vehicle id="down_278" type="typeNS" route="down" depart="674" color="1,0,0"/>
    <vehicle id="down_279" type="typeNS" route="down" depart="675" color="1,0,0"/>
    <vehicle id="down_280" type="typeNS" route="down" depart="683" color="1,0,0"/>
    <vehicle id="down_281" type="typeNS" route="down" depart="685" color="1,0,0"/>
    <vehicle id="up_282" type="typeNS" route="up" depart="686" color="1,0,0"/>
    <vehicle id="right_283" type="typeWE" route="right" depart="688" />
    <vehicle id="down_284" type="typeNS" route="down" depart="691" color="1,0,0"/>
    <vehicle id="up_285" type="typeNS" route="up" depart="691" color="1,0,0"/>
    <vehicle id="up_286" type="typeNS" route="up" depart="694" color="1,0,0"/>
    <vehicle id="down_287" type="typeNS" route="down" depart="695" color="1,0,0"/>
    <vehicle id="up_288" type="typeNS" route="up" depart="697" color="1,0,0"/>
    <vehicle id="right_289" type="typeWE" route="right" depart="699" />
    <vehicle id="down_290" type="typeNS" route="down" depart="707" color="1,0,0"/>
    <vehicle id="down_291" type="typeNS" route="down" depart="711" color="1,0,0"/>
    <vehicle id="down_292" type="typeNS" route="down" depart="712" color="1,0,0"/>
    <vehicle id="up_293" type="typeNS" route="up" depart="713" color="1,0,0"/>
    <vehicle id="right_294" type="typeWE" route="right" depart="715" />
    <vehicle id="right_295" type="typeWE" route="right" depart="716" />
    <vehicle id="right_296" type="typeWE" route="right" depart="719" />
    <vehicle id="up_297" type="typeNS" route="up" depart="722" color="1,0,0"/>
    <vehicle id="right_298" type="typeWE" route="right" depart="723" />
    <vehicle id="left_299" type="typeWE" route="left" depart="727" />
    <vehicle id="left_300" type="typeWE" route="left" depart="730" />
    <vehicle id="down_301" type="typeNS" route="down" depart="730" color="1,0,0"/>
    <vehicle id="down_302" type="typeNS" route="down" depart="731" color="1,0,0"/>
    <vehicle id="left_303" type="typeWE" route="left" depart="737" />
    <vehicle id="up_304" type="typeNS" route="up" depart="738" color="1,0,0"/>
    <vehicle id="left_305" type="typeWE" route="left" depart="742" />
    <vehicle id="up_306" type="typeNS" route="up" depart="745" color="1,0,0"/>
    <vehicle id="left_307" type="typeWE" route="left" depart="748" />
    <vehicle id="up_308" type="typeNS" route="up" depart="751" color="1,0,0"/>
    <vehicle id="left_309" type="typeWE" route="left" depart="763" />
    <vehicle id="down_310" type="typeNS" route="down" depart="764" color="1,0,0"/>
    <vehicle id="up_311" type="typeNS" route="up" depart="765" color="1,0,0"/>
    <vehicle id="up_312" type="typeNS" route="up" depart="770" color="1,0,0"/>
    <vehicle id="left_313" type="typeWE" route="left" depart="774" />
    <vehicle id="right_314" type="typeWE" route="right" depart="776" />
    <vehicle id="right_315" type="typeWE" route="right" depart="778" />
    <vehicle id="right_316" type="typeWE" route="right" depart="781" />
    <vehicle id="down_317" type="typeNS" route="down" depart="781" color="1,0,0"/>
    <vehicle id="left_318" type="typeWE" route="left" depart="782" />
    <vehicle id="left_319" type="typeWE" route="left" depart="784" />
    <vehicle id="left_320" type="typeWE" route="left" depart="785" />
    <vehicle id="right_321" type="typeWE" route="right" depart="787" />
    <vehicle id="down_322" type="typeNS" route="down" depart="794" color="1,0,0"/>
    <vehicle id="down_323" type="typeNS" route="down" depart="796" color="1,0,0"/>
    <vehicle id="up_324" type="typeNS" route="up" depart="801" color="1,0,0"/>
    <vehicle id="left_325" type="typeWE" route="left" depart="802" />
    <vehicle id="left_326" type="typeWE" route="left" depart="803" />
    <vehicle id="up_327" type="typeNS" route="up" depart="804" color="1,0,0"/>
    <vehicle id="up_328" type="typeNS" route="up" depart="809" color="1,0,0"/>
    <vehicle id="right_329" type="typeWE" route="right" depart="813" />
    <vehicle id="left_330" type="typeWE" route="left" depart="816" />
    <vehicle id="down_331" type="typeNS" route="down" depart="817" color="1,0,0"/>
    <vehicle id="up_332" type="typeNS" route="up" depart="819" color="1,0,0"/>
    <vehicle id="down_333" type="typeNS" route="down" depart="820" color="1,0,0"/>
    <vehicle id="left_334" type="typeWE" route="left" depart="824" />
    <vehicle id="down_335" type="typeNS" route="down" depart="824" color="1,0,0"/>
    <vehicle id="right_336" type="typeWE" route="right" depart="825" />
    <vehicle id="down_337" type="typeNS" route="down" depart="829" color="1,0,0"/>
    <vehicle id="up_338" type="typeNS" route="up" depart="829" color="1,0,0"/>
    <vehicle id="up_339" type="typeNS" route="up" depart="831" color="1,0,0"/>
    <vehicle id="right_340" type="typeWE" route="right" depart="833" />
    <vehicle id="down_341" type="typeNS" route="down" depart="833" color="1,0,0"/>
    <vehicle id="right_342" type="typeWE" route="right" depart="834" />
    <vehicle id="down_343" type="typeNS" route="down" depart="838" color="1,0,0"/>
    <vehicle id="up_344" type="typeNS" route="up" depart="843" color="1,0,0"/>
    <vehicle id="right_345" type="typeWE" route="right" depart="844" />
    <vehicle id="right_346" type="typeWE" route="right" depart="845" />
    <vehicle id="down_347" type="typeNS" route="down" depart="845" color="1,0,0"/>
    <vehicle id="down_348" type="typeNS" route="down" depart="847" color="1,0,0"/>
    <vehicle id="down_349" type="typeNS" route="down" depart="849" color="1,0,0"/>
    <vehicle id="right_350" type="typeWE" route="right" depart="850" />
    <vehicle id="up_351" type="typeNS" route="up" depart="851" color="1,0,0"/>
    <vehicle id="right_352" type="typeWE" route="right" depart="854" />
    <vehicle id="down_353" type="typeNS" route="down" depart="855" color="1,0,0"/>
    <vehicle id="right_354" type="typeWE" route="right" depart="857" />
    <vehicle id="right_355" type="typeWE" route="right" depart="858" />
    <vehicle id="up_356" type="typeNS" route="up" depart="858" color="1,0,0"/>
    <vehicle id="left_357" type="typeWE" route="left" depart="860" />
    <vehicle id="down_358" type="typeNS" route="down" depart="861" color="1,0,0"/>
    <vehicle id="right_359" type="typeWE" route="right" depart="868" />
    <vehicle id="left_360" type="typeWE" route="left" depart="868" />
    <vehicle id="up_361" type="typeNS" route="up" depart="871" color="1,0,0"/>
    <vehicle id="right_362" type="typeWE" route="right" depart="874" />
    <vehicle id="right_363" type="typeWE" route="right" depart="877" />
    <vehicle id="right_364" type="typeWE" route="right" depart="884" />
    <vehicle id="up_365" type="typeNS" route="up" depart="885" color="1,0,0"/>
    <vehicle id="right_366" type="typeWE" route="right" depart="886" />
    <vehicle id="up_367" type="typeNS" route="up" depart="887" color="1,0,0"/>
    <vehicle id="left_368" type="typeWE" route="left" depart="893" />
    <vehicle id="left_369" type="typeWE" route="left" depart="895" />
    <vehicle id="right_370" type="typeWE" route="right" depart="897" />
    <vehicle id="up_371" type="typeNS" route="up" depart="897" color="1,0,0"/>
    <vehicle id="up_372" type="typeNS" route="up" depart="898" color="1,0,0"/>
    <vehicle id="right_373" type="typeWE" route="right" depart="901" />
    <vehicle id="down_374" type="typeNS" route="down" depart="902" color="1,0,0"/>
    <vehicle id="left_375" type="typeWE" route="left" depart="904" />
    <vehicle id="left_376" type="typeWE" route="left" depart="910" />
    <vehicle id="left_377" type="typeWE" route="left" depart="912" />
    <vehicle id="right_378" type="typeWE" route="right" depart="913" />
    <vehicle id="left_379" type="typeWE" route="left" depart="917" />
    <vehicle id="right_380" type="typeWE" route="right" depart="918" />
    <vehicle id="up_381" type="typeNS" route="up" depart="918" color="1,0,0"/>
    <vehicle id="down_382" type="typeNS" route="down" depart="922" color="1,0,0"/>
    <vehicle id="up_383" type="typeNS" route="up" depart="924" color="1,0,0"/>
    <vehicle id="up_384" type="typeNS" route="up" depart="927" color="1,0,0"/>
    <vehicle id="left_385" type="typeWE" route="left" depart="929" />
    <vehicle id="left_386" type="typeWE" route="left" depart="930" />
    <vehicle id="right_387" type="typeWE" route="right" depart="932" />
    <vehicle id="up_388" type="typeNS" route="up" depart="934" color="1,0,0"/>
    <vehicle id="right_389" type="typeWE" route="right" depart="936" />