<routes>
            <vType id="typeWE" accel="0.8" decel="4.5" sigma="0.5" length="5" minGap="2.5" maxSpeed="16.67" guiShape="passenger"/>
            <vType id="typeNS" accel="0.8" decel="4.5" sigma="0.5" length="7" minGap="3" maxSpeed="25" guiShape="bus"/>
            <route id="right" edges="51o 1i 2o 52i" />
            <route id="left" edges="52o 2i 1o 51i" />
            <route id="up" edges="53o 3i 4o 54i" />
            <route id="down" edges="54o 4i 3o 53i" />
    <vehicle id="left_0" type="typeWE" route="left" depart="1" />
    <vehicle id="down_1" type="typeNS" route="down" depart="1" color="1,0,0"/>
    <vehicle id="left_2" type="typeWE" route="left" depart="3" />
    <vehicle id="right_3" type="typeWE" route="right" depart="5" />
    <vehicle id="up_4" type="typeNS" route="up" depart="10" color="1,0,0"/>
    <vehicle id="down_5" type="typeNS" route="down" depart="13" color="1,0,0"/>
    <vehicle id="left_6" type="typeWE" route="left" depart="17" />
    <vehicle id="right_7" type="typeWE" route="right" depart="23" />
    <vehicle id="right_8" type="typeWE" route="right" depart="24" />
    <vehicle id="left_9" type="typeWE" route="left" depart="26" />
    <vehicle id="down_10" type="typeNS" route="down" depart="30" color="1,0,0"/>
    <vehicle id="down_11" type="typeNS" route="down" depart="32" color="1,0,0"/>
    <vehicle id="up_12" type="typeNS" route="up" depart="33" color="1,0,0"/>
    <vehicle id="up_13" type="typeNS" route="up" depart="37" color="1,0,0"/>
    <vehicle id="down_14" type="typeNS" route="down" depart="49" color="1,0,0"/>
    <vehicle id="right_15" type="typeWE" route="right" depart="52" />
    <vehicle id="up_16" type="typeNS" route="up" depart="55" color="1,0,0"/>
    <vehicle id="right_17" type="typeWE" route="right" depart="56" />
    <vehicle id="right_18" type="typeWE" route="right" depart="59" />
    <vehicle id="down_19" type="typeNS" route="down" depart="62" color="1,0,0"/>
    <vehicle id="up_20" type="typeNS" route="up" depart="62" color="1,0,0"/>
    <vehicle id="up_21" type="typeNS" route="up" depart="64" color="1,0,0"/>
    <vehicle id="down_22" type="typeNS" route="down" depart="65" color="1,0,0"/>
    <vehicle id="up_23" type="typeNS" route="up" depart="65" color="1,0,0"/>
    <vehicle id="down_24" type="typeNS" route="down" depart="68" color="1,0,0"/>
    <vehicle id="right_25" type="typeWE" route="right" depart="69" />
    <vehicle id="right_26" type="typeWE" route="right" depart="73" />
    <vehicle id="down_27" type="typeNS" route="down" depart="74" color="1,0,0"/>
    <vehicle id="right_28" type="typeWE" route="right" depart="79" />
    <vehicle id="up_29" type="typeNS" route="up" depart="86" color="1,0,0"/>
    <vehicle id="down_30" type="typeNS" route="down" depart="91" color="1,0,0"/>
    <vehicle id="right_31" type="typeWE" route="right" depart="95" />
    <vehicle id="up_32" type="typeNS" route="up" depart="97" color="1,0,0"/>
    <vehicle id="right_33" type="typeWE" route="right" depart="102" />
    <vehicle id="up_34" type="typeNS" route="up" depart="103" color="1,0,0"/>
    <vehicle id="left_35" type="typeWE" route="left" depart="107" />
    <vehicle id="down_36" type="typeNS" route="down" depart="107" color="1,0,0"/>
    <vehicle id="down_37" type="typeNS" route="down" depart="112" color="1,0,0"/>
    <vehicle id="left_38" type="typeWE" route="left" depart="116" />
    <vehicle id="right_39" type="typeWE" route="right" depart="118" />
    <vehicle id="up_40" type="typeNS" route="up" depart="122" color="1,0,0"/>
    <vehicle id="left_41" type="typeWE" route="left" depart="126" />
    <vehicle id="left_42" type="typeWE" route="left" depart="127" />
    <vehicle id="up_43" type="typeNS" route="up" depart="129" color="1,0,0"/>
    <vehicle id="up_44" type="typeNS" route="up" depart="132" color="1,0,0"/>
    <vehicle id="right_45" type="typeWE" route="right" depart="134" />
    <vehicle id="right_46" type="typeWE" route="right" depart="137" />
    <vehicle id="right_47" type="typeWE" route="right" depart="142" />
    <vehicle id="up_48" type="typeNS" route="up" depart="145" color="1,0,0"/>
    <vehicle id="left_49" type="typeWE" route="left" depart="149" />
    <vehicle id="left_50" type="typeWE" route="left" depart="154" />
    <vehicle id="right_51" type="typeWE" route="right" depart="155" />
    <vehicle id="left_52" type="typeWE" route="left" depart="155" />
    <vehicle id="right_53" type="typeWE" route="right" depart="157" />
    <vehicle id="left_54" type="typeWE" route="left" depart="160" />
    <vehicle id="up_55" type="typeNS" route="up" depart="163" color="1,0,0"/>
    <vehicle id="right_56" type="typeWE" route="right" depart="164" />
    <vehicle id="left_57" type="typeWE" route="left" depart="164" />
    <vehicle id="left_58" type="typeWE" route="left" depart="165" />
    <vehicle id="left_59" type="typeWE" route="left" depart="168" />
    <vehicle id="up_60" type="typeNS" route="up" depart="168" color="1,0,0"/>
    <vehicle id="right_61" type="typeWE" route="right" depart="175" />
    <vehicle id="down_62" type="typeNS" route="down" depart="177" color="1,0,0"/>
    <vehicle id="right_63" type="typeWE" route="right" depart="183" />
    <vehicle id="down_64" type="typeNS" route="down" depart="183" color="1,0,0"/>
    <vehicle id="right_65" type="typeWE" route="right" depart="185" />
    <vehicle id="up_66" type="typeNS" route="up" depart="186" color="1,0,0"/>
    <vehicle id="down_67" type="typeNS" route="down" depart="187" color="1,0,0"/>
    <vehicle id="left_68" type="typeWE" route="left" depart="188" />
    <vehicle id="up_69" type="typeNS" route="up" depart="190" color="1,0,0"/>
    <vehicle id="left_70" type="typeWE" route="left" depart="198" />
    <vehicle id="down_71" type="typeNS" route="down" depart="198" color="1,0,0"/>
    <vehicle id="up_72" type="typeNS" route="up" depart="204" color="1,0,0"/>
    <vehicle id="left_73" type="typeWE" route="left" depart="205" />
    <vehicle id="left_74" type="typeWE" route="left" depart="216" />
    <vehicle id="right_75" type="typeWE" route="right" depart="218" />
    <vehicle id="left_76" type="typeWE" route="left" depart="219" />
    <vehicle id="down_77" type="typeNS" route="down" depart="223" color="1,0,0"/>
    <vehicle id="left_78" type="typeWE" route="left" depart="228" />
    <vehicle id="right_79" type="typeWE" route="right" depart="232" />
    <vehicle id="right_80" type="typeWE" route="right" depart="233" />
    <vehicle id="up_81" type="typeNS" route="up" depart="234" color="1,0,0"/>
    <vehicle id="left_82" type="typeWE" route="left" depart="236" />
    <vehicle id="up_83" type="typeNS" route="up" depart="237" color="1,0,0"/>
    <vehicle id="left_84" type="typeWE" route="left" depart="238" />
    <vehicle id="right_85" type="typeWE" route="right" depart="242" />
    <vehicle id="left_86" type="typeWE" route="left" depart="242" />
    <vehicle id="left_87" type="typeWE" route="left" depart="243" />
    <vehicle id="up_88" type="typeNS" route="up" depart="243" color="1,0,0"/>
    <vehicle id="left_89" type="typeWE" route="left" depart="244" />
    <vehicle id="right_90" type="typeWE" route="right" depart="246" />
    <vehicle id="up_91" type="typeNS" route="up" depart="254" color="1,0,0"/>
    <vehicle id="left_92" type="typeWE" route="left" depart="258" />
    <vehicle id="up_93" type="typeNS" route="up" depart="259" color="1,0,0"/>
    <vehicle id="up_94" type="typeNS" route="up" depart="263" color="1,0,0"/>
    <vehicle id="down_95" type="typeNS" route="down" depart="270" color="1,0,0"/>
    <vehicle id="up_96" type="typeNS" route="up" depart="270" color="1,0,0"/>
    <vehicle id="left_97" type="typeWE" route="left" depart="274" />
    <vehicle id="left_98" type="typeWE" route="left" depart="275" />
    <vehicle id="up_99" type="typeNS" route="up" depart="277" color="1,0,0"/>
    <vehicle id="left_100" type="typeWE" route="left" depart="283" />
    <vehicle id="down_101" type="typeNS" route="down" depart="285" color="1,0,0"/>
    <vehicle id="right_102" type="typeWE" route="right" depart="288" />
    <vehicle id="up_103" type="typeNS" route="up" depart="292" color="1,0,0"/>
    <vehicle id="up_104" type="typeNS" route="up" depart="293" color="1,0,0"/>
    <vehicle id="right_105" type="typeWE" route="right" depart="294" />
    <vehicle id="left_106" type="typeWE" route="left" depart="294" />
    <vehicle id="left_107" type="typeWE" route="left" depart="297" />
    <vehicle id="down_108" type="typeNS" route="down" depart="303" color="1,0,0"/>
    <vehicle id="right_109" type="typeWE" route="right" depart="305" />
    <vehicle id="down_110" type="typeNS" route="down" depart="306" color="1,0,0"/>
    <vehicle id="right_111" type="typeWE" route="right" depart="315" />
    <vehicle id="left_112" type="typeWE" route="left" depart="322" />
    <vehicle id="down_113" type="typeNS" route="down" depart="325" color="1,0,0"/>
    <vehicle id="up_114" type="typeNS" route="up" depart="327" color="1,0,0"/>
    <vehicle id="right_115" type="typeWE" route="right" depart="328" />
    <vehicle id="left_116" type="typeWE" route="left" depart="330" />
    <vehicle id="down_117" type="typeNS" route="down" depart="336" color="1,0,0"/>
    <vehicle id="left_118" type="typeWE" route="left" depart="338" />
    <vehicle id="down_119" type="typeNS" route="down" depart="340" color="1,0,0"/>
    <vehicle id="left_120" type="typeWE" route="left" depart="344" />
    <vehicle id="down_121" type="typeNS" route="down" depart="350" color="1,0,0"/>
    <vehicle id="left_122" type="typeWE" route="left" depart="352" />
    <vehicle id="down_123" type="typeNS" route="down" depart="353" color="1,0,0"/>
    <vehicle id="down_124" type="typeNS" route="down" depart="355" color="1,0,0"/>
    <vehicle id="up_125" type="typeNS" route="up" depart="356" color="1,0,0"/>
    <vehicle id="right_126" type="typeWE" route="right" depart="358" />
    <vehicle id="up_127" type="typeNS" route="up" depart="358" color="1,0,0"/>
    <vehicle id="down_128" type="typeNS" route="down" depart="362" color="1,0,0"/>
    <vehicle id="right_129" type="typeWE" route="right" depart="368" />
    <vehicle id="up_130" type="typeNS" route="up" depart="368" color="1,0,0"/>
    <vehicle id="up_131" type="typeNS" route="up" depart="370" color="1,0,0"/>
    <vehicle id="up_132" type="typeNS" route="up" depart="371" color="1,0,0"/>
    <vehicle id="left_133" type="typeWE" route="left" depart="376" />
    <vehicle id="up_134" type="typeNS" route="up" depart="379" color="1,0,0"/>
    <vehicle id="down_135" type="typeNS" route="down" depart="380" color="1,0,0"/>
    <vehicle id="down_136" type="typeNS" route="down" depart="381" color="1,0,0"/>
    <vehicle id="down_137" type="typeNS" route="down" depart="382" color="1,0,0"/>
    <vehicle id="right_138" type="typeWE" route="right" depart="384" />
    <vehicle id="down_139" type="typeNS" route="down" depart="384" color="1,0,0"/>
    <vehicle id="right_140" type="typeWE" route="right" depart="386" />
    <vehicle id="left_141" type="typeWE" route="left" depart="388" />
    <vehicle id="right_142" type="typeWE" route="right" depart="391" />
    <vehicle id="left_143" type="typeWE" route="left" depart="391" />
    <vehicle id="down_144" type="typeNS" route="down" depart="392" color="1,0,0"/>
    <vehicle id="up_145" type="typeNS" route="up" depart="394" color="1,0,0"/>
    <vehicle id="left_146" type="typeWE" route="left" depart="395" />
    <vehicle id="down_147" type="typeNS" route="down" depart="395" color="1,0,0"/>
    <vehicle id="down_148" type="typeNS" route="down" depart="398" color="1,0,0"/>
    <vehicle id="left_149" type="typeWE" route="left" depart="399" />
    <vehicle id="left_150" type="typeWE" route="left" depart="400" />
    <vehicle id="left_151" type="typeWE" route="left" depart="403" />
    <vehicle id="down_152" type="typeNS" route="down" depart="407" color="1,0,0"/>
    <vehicle id="down_153" type="typeNS" route="down" depart="410" color="1,0,0"/>
    <vehicle id="down_154" type="typeNS" route="down" depart="411" color="1,0,0"/>
    <vehicle id="left_155" type="typeWE" route="left" depart="416" />
    <vehicle id="up_156" type="typeNS" route="up" depart="418" color="1,0,0"/>
    <vehicle id="right_157" type="typeWE" route="right" depart="420" />
    <vehicle id="up_158" type="typeNS" route="up" depart="426" color="1,0,0"/>
    <vehicle id="down_159" type="typeNS" route="down" depart="431" color="1,0,0"/>
    <vehicle id="right_160" type="typeWE" route="right" depart="434" />
    <vehicle id="left_161" type="typeWE" route="left" depart="434" />
    <vehicle id="left_162" type="typeWE" route="left" depart="436" />
    <vehicle id="up_163" type="typeNS" route="up" depart="436" color="1,0,0"/>
    <vehicle id="left_164" type="typeWE" route="left" depart="437" />
    <vehicle id="right_165" type="typeWE" route="right" depart="444" />
    <vehicle id="up_166" type="typeNS" route="up" depart="446" color="1,0,0"/>
    <vehicle id="right_167" type="typeWE" route="right" depart="447" />
    <vehicle id="down_168" type="typeNS" route="down" depart="449" color="1,0,0"/>
    <vehicle id="right_169" type="typeWE" route="right" depart="453" />
    <vehicle id="up_170" type="typeNS" route="up" depart="455" color="1,0,0"/>
    <vehicle id="up_171" type="typeNS" route="up" depart="459" color="1,0,0"/>
    <vehicle id="right_172" type="typeWE" route="right" depart="460" />
    <vehicle id="right_173" type="typeWE" route="right" depart="463" />
    <vehicle id="up_174" type="typeNS" route="up" depart="469" color="1,0,0"/>
    <vehicle id="right_175" type="typeWE" route="right" depart="470" />
    <vehicle id="right_176" type="typeWE" route="right" depart="471" />
    <vehicle id="down_177" type="typeNS" route="down" depart="478" color="1,0,0"/>
    <vehicle id="left_178" type="typeWE" route="left" depart="482" />
    <vehicle id="right_179" type="typeWE" route="right" depart="484" />
    <vehicle id="up_180" type="typeNS" route="up" depart="488" color="1,0,0"/>
    <vehicle id="up_181" type="typeNS" route="up" depart="490" color="1,0,0"/>
    <vehicle id="down_182" type="typeNS" route="down" depart="491" color="1,0,0"/>
    <vehicle id="right_183" type="typeWE" route="right" depart="493" />
    <vehicle id="right_184" type="typeWE" route="right" depart="494" />
    <vehicle id="up_185" type="typeNS" route="up" depart="498" color="1,0,0"/>
    <vehicle id="up_186" type="typeNS" route="up" depart="499" color="1,0,0"/>
    <vehicle id="up_187" type="typeNS" route="up" depart="502" color="1,0,0"/>
    <vehicle id="left_188" type="typeWE" route="left" depart="506" />
    <vehicle id="up_189" type="typeNS" route="up" depart="506" color="1,0,0"/>
    <vehicle id="left_190" type="typeWE" route="left" depart="508" />
    <vehicle id="left_191" type="typeWE" route="left" depart="512" />
    <vehicle id="up_192" type="typeNS" route="up" depart="517" color="1,0,0"/>
    <vehicle id="left_193" type="typeWE" route="left" depart="525" />
    <vehicle id="up_194" type="typeNS" route="up" depart="526" color="1,0,0"/>
    <vehicle id="left_195" type="typeWE" route="left" depart="529" />
    <vehicle id="left_196" type="typeWE" route="left" depart="533" />
    <vehicle id="down_197" type="typeNS" route="down" depart="535" color="1,0,0"/>
    <vehicle id="left_198" type="typeWE" route="left" depart="539" />
    <vehicle id="right_199" type="typeWE" route="right" depart="543" />
    <vehicle id="right_200" type="typeWE" route="right" depart="547" />
    <vehicle id="down_201" type="typeNS" route="down" depart="549" color="1,0,0"/>
    <vehicle id="down_202" type="typeNS" route="down" depart="554" color="1,0,0"/>
    <vehicle id="right_203" type="typeWE" route="right" depart="555" />
    <vehicle id="up_204" type="typeNS" route="up" depart="555" color="1,0,0"/>
    <vehicle id="up_205" type="typeNS" route="up" depart="556" color="1,0,0"/>
    <vehicle id="up_206" type="typeNS" route="up" depart="558" color="1,0,0"/>
    <vehicle id="left_207" type="typeWE" route="left" depart="560" />
    <vehicle id="right_208" type="typeWE" route="right" depart="565" />
    <vehicle id="left_209" type="typeWE" route="left" depart="571" />
    <vehicle id="up_210" type="typeNS" route="up" depart="571" color="1,0,0"/>
    <vehicle id="right_211" type="typeWE" route="right" depart="573" />
    <vehicle id="left_212" type="typeWE" route="left" depart="577" />
    <vehicle id="up_213" type="typeNS" route="up" depart="577" color="1,0,0"/>
    <vehicle id="down_214" type="typeNS" route="down" depart="578" color="1,0,0"/>
    <vehicle id="down_215" type="typeNS" route="down" depart="579" color="1,0,0"/>
    <vehicle id="left_216" type="typeWE" route="left" depart="581" />
    <vehicle id="up_217" type="typeNS" route="up" depart="581" color="1,0,0"/>
    <vehicle id="up_218" type="typeNS" route="up" depart="582" color="1,0,0"/>
    <vehicle id="down_219" type="typeNS" route="down" depart="583" color="1,0,0"/>
    <vehicle id="right_220" type="typeWE" route="right" depart="592" />
    <vehicle id="left_221" type="typeWE" route="left" depart="593" />
    <vehicle id="left_222" type="typeWE" route="left" depart="594" />
    <vehicle id="right_223" type="typeWE" route="right" depart="595" />
    <vehicle id="left_224" type="typeWE" route="left" depart="595" />
    <vehicle id="right_225" type="typeWE" route="right" depart="601" />
    <vehicle id="down_226" type="typeNS" route="down" depart="602" color="1,0,0"/>
    <vehicle id="up_227" type="typeNS" route="up" depart="603" color="1,0,0"/>
    <vehicle id="left_228" type="typeWE" route="left" depart="604" />
    <vehicle id="left_229" type="typeWE" route="left" depart="608" />
    <vehicle id="down_230" type="typeNS" route="down" depart="610" color="1,0,0"/>
    <vehicle id="down_231" type="typeNS" route="down" depart="611" color="1,0,0"/>
    <vehicle id="left_232" type="typeWE" route="left" depart="612" />
    <vehicle id="down_233" type="typeNS" route="down" depart="620" color="1,0,0"/>
    <vehicle id="left_234" type="typeWE" route="left" depart="627" />
    <vehicle id="left_235" type="typeWE" route="left" depart="629" />
    <vehicle id="up_236" type="typeNS" route="up" depart="629" color="1,0,0"/>
    <vehicle id="down_237" type="typeNS" route="down" depart="631" color="1,0,0"/>
    <vehicle id="down_238" type="typeNS" route="down" depart="632" color="1,0,0"/>
    <vehicle id="right_239" type="typeWE" route="right" depart="636" />
    <vehicle id="down_240" type="typeNS" route="down" depart="643" color="1,0,0"/>
    <vehicle id="down_241" type="typeNS" route="down" depart="645" color="1,0,0"/>
    <vehicle id="down_242" type="typeNS" route="down" depart="646" color="1,0,0"/>
    <vehicle id="left_243" type="typeWE" route="left" depart="648" />
    <vehicle id="down_244" type="typeNS" route="down" depart="648" color="1,0,0"/>
    <vehicle id="up_245" type="typeNS" route="up" depart="648" color="1,0,0"/>
    <vehicle id="down_246" type="typeNS" route="down" depart="651" color="1,0,0"/>
    <vehicle id="down_247" type="typeNS" route="down" depart="652" color="1,0,0"/>
    <vehicle id="left_248" type="typeWE" route="left" depart="653" />
    <vehicle id="down_249" type="typeNS" route="down" depart="657" color="1,0,0"/>
    <vehicle id="up_250" type="typeNS" route="up" depart="660" color="1,0,0"/>
    <vehicle id="left_251" type="typeWE" route="left" depart="665" />
    <vehicle id="down_252" type="typeNS" route="down" depart="666" color="1,0,0"/>
    <vehicle id="down_253" type="typeNS" route="down" depart="668" color="1,0,0"/>
    <vehicle id="down_254" type="typeNS" route="down" depart="669" color="1,0,0"/>
    <vehicle id="right_255" type="typeWE" route="right" depart="670" />
    <vehicle id="down_256" type="typeNS" route="down" depart="671" color="1,0,0"/>
    <vehicle id="right_257" type="typeWE" route="right" depart="672" />
    <vehicle id="up_258" type="typeNS" route="up" depart="673" color="1,0,0"/>
    <vehicle id="right_259" type="typeWE" route="right" depart="677" />
    <vehicle id="down_260" type="typeNS" route="down" depart="677" color="1,0,0"/>
    <vehicle id="right_261" type="typeWE" route="right" depart="681" />
    <vehicle id="down_262" type="typeNS" route="down" depart="682" color="1,0,0"/>
    <vehicle id="down_263" type="typeNS" route="down" depart="684" color="1,0,0"/>
    <vehicle id="left_264" type="typeWE" route="left" depart="687" />
    <vehicle id="right_265" type="typeWE" route="right" depart="688" />
    <vehicle id="up_266" type="typeNS" route="up" depart="688" color="1,0,0"/>
    <vehicle id="down_267" type="typeNS" route="down" depart="691" color="1,0,0"/>
    <vehicle id="right_268" type="typeWE" route="right" depart="694" />
    <vehicle id="up_269" type="typeNS" route="up" depart="697" color="1,0,0"/>
    <vehicle id="down_270" type="typeNS" route="down" depart="699" color="1,0,0"/>
    <vehicle id="down_271" type="typeNS" route="down" depart="701" color="1,0,0"/>
    <vehicle id="right_272" type="typeWE" route="right" depart="711" />
    <vehicle id="right_273" type="typeWE" route="right" depart="714" />
    <vehicle id="down_274" type="typeNS" route="down" depart="716" color="1,0,0"/>
    <vehicle id="up_275" type="typeNS" route="up" depart="716" color="1,0,0"/>
    <vehicle id="down_276" type="typeNS" route="down" depart="720" color="1,0,0"/>
    <vehicle id="up_277" type="typeNS" route="up" depart="721" color="1,0,0"/>
    <vehicle id="up_278" type="typeNS" route="up" depart="722" color="1,0,0"/>
    <vehicle id="up_279" type="typeNS" route="up" depart="725" color="1,0,0"/>
    <vehicle id="up_280" type="typeNS" route="up" depart="728" color="1,0,0"/>
    <vehicle id="up_281" type="typeNS" route="up" depart="730" color="1,0,0"/>
    <vehicle id="down_282" type="typeNS" route="down" depart="731" color="1,0,0"/>
    <vehicle id="left_283" type="typeWE" route="left" depart="733" />
    <vehicle id="down_284" type="typeNS" route="down" depart="735" color="1,0,0"/>
    <vehicle id="up_285" type="typeNS" route="up" depart="737" color="1,0,0"/>
    <vehicle id="up_286" type="typeNS" route="up" depart="738" color="1,0,0"/>
    <vehicle id="down_287" type="typeNS" route="down" depart="739" color="1,0,0"/>
    <vehicle id="up_288" type="typeNS" route="up" depart="740" color="1,0,0"/>
    <vehicle id="right_289" type="typeWE" route="right" depart="745" />
    <vehicle id="up_290" type="typeNS" route="up" depart="745" color="1,0,0"/>
    <vehicle id="down_291" type="typeNS" route="down" depart="752" color="1,0,0"/>
    <vehicle id="right_292" type="typeWE" route="right" depart="753" />
    <vehicle id="right_293" type="typeWE" route="right" depart="754" />
    <vehicle id="up_294" type="typeNS" route="up" depart="756" color="1,0,0"/>
    <vehicle id="down_295" type="typeNS" route="down" depart="762" color="1,0,0"/>
    <vehicle id="up_296" type="typeNS" route="up" depart="764" color="1,0,0"/>
    <vehicle id="left_297" type="typeWE" route="left" depart="766" />
    <vehicle id="right_298" type="typeWE" route="right" depart="767" />
    <vehicle id="down_299" type="typeNS" route="down" depart="770" color="1,0,0"/>
    <vehicle id="up_300" type="typeNS" route="up" depart="778" color="1,0,0"/>
    <vehicle id="down_301" type="typeNS" route="down" depart="780" color="1,0,0"/>
    <vehicle id="down_302" type="typeNS" route="down" depart="781" color="1,0,0"/>
    <vehicle id="up_303" type="typeNS" route="up" depart="787" color="1,0,0"/>
    <vehicle id="down_304" type="typeNS" route="down" depart="788" color="1,0,0"/>
    <vehicle id="up_305" type="typeNS" route="up" depart="789" color="1,0,0"/>
    <vehicle id="left_306" type="typeWE" route="left" depart="790" />
    <vehicle id="down_307" type="typeNS" route="down" depart="790" color="1,0,0"/>
    <vehicle id="up_308" type="typeNS" route="up" depart="790" color="1,0,0"/>
    <vehicle id="right_309" type="typeWE" route="right" depart="791" />
    <vehicle id="right_310" type="typeWE" route="right" depart="792" />
    <vehicle id="left_311" type="typeWE" route="left" depart="792" />
    <vehicle id="down_312" type="typeNS" route="down" depart="792" color="1,0,0"/>
    <vehicle id="up_313" type="typeNS" route="up" depart="793" color="1,0,0"/>
    <vehicle id="down_314" type="typeNS" route="down" depart="798" color="1,0,0"/>
    <vehicle id="left_315" type="typeWE" route="left" depart="800" />
    <vehicle id="up_316" type="typeNS" route="up" depart="800" color="1,0,0"/>
    <vehicle id="up_317" type="typeNS" route="up" depart="802" color="1,0,0"/>
    <vehicle id="down_318" type="typeNS" route="down" depart="803" color="1,0,0"/>
    <vehicle id="right_319" type="typeWE" route="right" depart="806" />
    <vehicle id="right_320" type="typeWE" route="right" depart="809" />
    <vehicle id="left_321" type="typeWE" route="left" depart="811" />
    <vehicle id="left_322" type="typeWE" route="left" depart="816" />
    <vehicle id="right_323" type="typeWE" route="right" depart="817" />
    <vehicle id="down_324" type="typeNS" route="down" depart="817" color="1,0,0"/>
    <vehicle id="up_325" type="typeNS" route="up" depart="817" color="1,0,0"/>
    <vehicle id="right_326" type="typeWE" route="right" depart="818" />
    <vehicle id="left_327" type="typeWE" route="left" depart="819" />
    <vehicle id="right_328" type="typeWE" route="right" depart="821" />
    <vehicle id="down_329" type="typeNS" route="down" depart="829" color="1,0,0"/>
    <vehicle id="left_330" type="typeWE" route="left" depart="832" />
    <vehicle id="down_331" type="typeNS" route="down" depart="834" color="1,0,0"/>
    <vehicle id="left_332" type="typeWE" route="left" depart="843" />
    <vehicle id="down_333" type="typeNS" route="down" depart="859" color="1,0,0"/>
    <vehicle id="right_334" type="typeWE" route="right" depart="868" />
    <vehicle id="down_335" type="typeNS" route="down" depart="871" color="1,0,0"/>
    <vehicle id="up_336" type="typeNS" route="up" depart="874" color="1,0,0"/>
    <vehicle id="left_337" type="typeWE" route="left" depart="890" />
    <vehicle id="left_338" type="typeWE" route="left" depart="891" />
    <vehicle id="down_339" type="typeNS" route="down" depart="894" color="1,0,0"/>
    <vehicle id="up_340" type="typeNS" route="up" depart="894" color="1,0,0"/>
    <vehicle id="right_341" type="typeWE" route="right" depart="895" />
    <vehicle id="right_342" type="typeWE" route="right" depart="898" />
    <vehicle id="up_343" type="typeNS" route="up" depart="901" color="1,0,0"/>
    <vehicle id="left_344" type="typeWE" route="left" depart="904" />
    <vehicle id="up_345" type="typeNS" route="up" depart="904" color="1,0,0"/>
    <vehicle id="left_346" type="typeWE" route="left" depart="905" />
    <vehicle id="right_347" type="typeWE" route="right" depart="907" />
    <vehicle id="up_348" type="typeNS" route="up" depart="907" color="1,0,0"/>
    <vehicle id="left_349" type="typeWE" route="left" depart="909" />
    <vehicle id="up_350" type="typeNS" route="up" depart="918" color="1,0,0"/>
    <vehicle id="up_351" type="typeNS" route="up" depart="919" color="1,0,0"/>
    <vehicle id="right_352" type="typeWE" route="right" depart="925" />
    <vehicle id="up_353" type="typeNS" route="up" depart="925" color="1,0,0"/>
    <vehicle id="up_354" type="typeNS" route="up" depart="927" color="1,0,0"/>
    <vehicle id="right_355" type="typeWE" route="right" depart="928" />
    <vehicle id="up_356" type="typeNS" route="up" depart="931" color="1,0,0"/>
    <vehicle id="right_357" type="typeWE" route="right" depart="943" />
    <vehicle id="up_358" type="typeNS" route="up" depart="943" color="1,0,0"/>
    <vehicle id="up_359" type="typeNS" route="up" depart="944" color="1,0,0"/>
    <vehicle id="down_360" type="typeNS" route="down" depart="952" color="1,0,0"/>
    <vehicle id="right_361" type="typeWE" route="right" depart="963" />
    <vehicle id="up_362" type="typeNS" route="up" depart="968" color="1,0,0"/>
    <vehicle id="up_363" type="typeNS" route="up" depart="969" color="1,0,0"/>
    <vehicle id="down_364" type="typeNS" route="down" depart="979" color="1,0,0"/>
    <vehicle id="down_365" type="typeNS" route="down" depart="984" color="1,0,0"/>
    <vehicle id="down_366" type="typeNS" route="down" depart="988" color="1,0,0"/>
    <vehicle id="down_367" type="typeNS" route="down" depart="992" color="1,0,0"/>
    <vehicle id="right_368" type="typeWE" route="right" depart="993" />
    <vehicle id="left_369" type="typeWE" route="left" depart="993" />
    <vehicle id="right_370" type="typeWE" route="right" depart="999" />
    <vehicle id="down_371" type="typeNS" route="down" depart="1002" color="1,0,0"/>
    <vehicle id="up_372" type="typeNS" route="up" depart="1002" color="1,0,0"/>
    <vehicle id="left_373" type="typeWE" route="left" depart="1004" />
    <vehicle id="down_374" type="typeNS" route="down" depart="1006" color="1,0,0"/>
    <vehicle id="right_375" type="typeWE" route="right" depart="1010" />
    <vehicle id="left_376" type="typeWE" route="left" depart="1010" />
    <vehicle id="down_377" type="typeNS" route="down" depart="1010" color="1,0,0"/>
    <vehicle id="left_378" type="typeWE" route="left" depart="1011" />
    <vehicle id="up_379" type="typeNS" route="up" depart="1014" color="1,0,0"/>
    <vehicle id="left_380" type="typeWE" route="left" depart="1016" />
    <vehicle id="up_381" type="typeNS" route="up" depart="1020" color="1,0,0"/>
    <vehicle id="down_382" type="typeNS" route="down" depart="1022" color="1,0,0"/>
    <vehicle id="down_383" type="typeNS" route="down" depart="1024" color="1,0,0"/>
    <vehicle id="down_384" type="typeNS" route="down" depart="1025" color="1,0,0"/>
    <vehicle id="right_385" type="typeWE" route="right" depart="1037" />
    <vehicle id="down_386" type="typeNS" route="down" depart="1045" color="1,0,0"/>
    <vehicle id="right_387" type="typeWE" route="right" depart="1048" />