<routes>
            <vType id="typeWE" accel="0.8" decel="4.5" sigma="0.5" length="5" minGap="2.5" maxSpeed="16.67" guiShape="passenger"/>
            <vType id="typeNS" accel="0.8" decel="4.5" sigma="0.5" length="5" minGap="2.5" maxSpeed="16.67" guiShape="passenger"/>
            <route id="right" edges="51o 1i 2o 52i" />
            <route id="left" edges="52o 2i 1o 51i" />
            <route id="up" edges="53o 3i 4o 54i" />
            <route id="down" edges="54o 4i 3o 53i" />
    <vehicle id="down_0" type="typeNS" route="down" depart="3" color="1,0,0"/>
    <vehicle id="up_1" type="typeNS" route="up" depart="4" color="1,0,0"/>
    <vehicle id="left_2" type="typeWE" route="left" depart="13" />
    <vehicle id="left_3" type="typeWE" route="left" depart="15" />
    <vehicle id="down_4" type="typeNS" route="down" depart="16" color="1,0,0"/>
    <vehicle id="down_5" type="typeNS" route="down" depart="18" color="1,0,0"/>
    <vehicle id="left_6" type="typeWE" route="left" depart="30" />
    <vehicle id="left_7" type="typeWE" route="left" depart="32" />
    <vehicle id="down_8" type="typeNS" route="down" depart="35" color="1,0,0"/>
    <vehicle id="up_9" type="typeNS" route="up" depart="35" color="1,0,0"/>
    <vehicle id="right_10" type="typeWE" route="right" depart="44" />
    <vehicle id="left_11" type="typeWE" route="left" depart="51" />
    <vehicle id="up_12" type="typeNS" route="up" depart="56" color="1,0,0"/>
    <vehicle id="down_13" type="typeNS" route="down" depart="63" color="1,0,0"/>
    <vehicle id="up_14" type="typeNS" route="up" depart="64" color="1,0,0"/>
    <vehicle id="left_15" type="typeWE" route="left" depart="66" />
    <vehicle id="up_16" type="typeNS" route="up" depart="67" color="1,0,0"/>
    <vehicle id="right_17" type="typeWE" route="right" depart="68" />
    <vehicle id="down_18" type="typeNS" route="down" depart="74" color="1,0,0"/>
    <vehicle id="right_19" type="typeWE" route="right" depart="79" />
    <vehicle id="down_20" type="typeNS" route="down" depart="89" color="1,0,0"/>
    <vehicle id="down_21" type="typeNS" route="down" depart="90" color="1,0,0"/>
    <vehicle id="up_22" type="typeNS" route="up" depart="103" color="1,0,0"/>
    <vehicle id="up_23" type="typeNS" route="up" depart="104" color="1,0,0"/>
    <vehicle id="right_24" type="typeWE" route="right" depart="121" />
    <vehicle id="left_25" type="typeWE" route="left" depart="124" />
    <vehicle id="down_26" type="typeNS" route="down" depart="125" color="1,0,0"/>
    <vehicle id="up_27" type="typeNS" route="up" depart="127" color="1,0,0"/>
    <vehicle id="left_28" type="typeWE" route="left" depart="128" />
    <vehicle id="up_29" type="typeNS" route="up" depart="142" color="1,0,0"/>
    <vehicle id="right_30" type="typeWE" route="right" depart="158" />
    <vehicle id="left_31" type="typeWE" route="left" depart="161" />
    <vehicle id="down_32" type="typeNS" route="down" depart="163" color="1,0,0"/>
    <vehicle id="down_33" type="typeNS" route="down" depart="175" color="1,0,0"/>
    <vehicle id="down_34" type="typeNS" route="down" depart="177" color="1,0,0"/>
    <vehicle id="right_35" type="typeWE" route="right" depart="188" />
    <vehicle id="down_36" type="typeNS" route="down" depart="191" color="1,0,0"/>
    <vehicle id="left_37" type="typeWE" route="left" depart="192" />
    <vehicle id="right_38" type="typeWE" route="right" depart="193" />
    <vehicle id="right_39" type="typeWE" route="right" depart="195" />
    <vehicle id="left_40" type="typeWE" route="left" depart="195" />
    <vehicle id="down_41" type="typeNS" route="down" depart="201" color="1,0,0"/>
    <vehicle id="left_42" type="typeWE" route="left" depart="209" />
    <vehicle id="up_43" type="typeNS" route="up" depart="210" color="1,0,0"/>
    <vehicle id="up_44" type="typeNS" route="up" depart="219" color="1,0,0"/>
    <vehicle id="right_45" type="typeWE" route="right" depart="220" />
    <vehicle id="left_46" type="typeWE" route="left" depart="225" />
    <vehicle id="down_47" type="typeNS" route="down" depart="230" color="1,0,0"/>
    <vehicle id="down_48" type="typeNS" route="down" depart="231" color="1,0,0"/>
    <vehicle id="right_49" type="typeWE" route="right" depart="238" />
    <vehicle id="down_50" type="typeNS" route="down" depart="242" color="1,0,0"/>
    <vehicle id="left_51" type="typeWE" route="left" depart="249" />
    <vehicle id="left_52" type="typeWE" route="left" depart="251" />
    <vehicle id="left_53" type="typeWE" route="left" depart="252" />
    <vehicle id="right_54" type="typeWE" route="right" depart="256" />
    <vehicle id="down_55" type="typeNS" route="down" depart="262" color="1,0,0"/>
    <vehicle id="down_56" type="typeNS" route="down" depart="264" color="1,0,0"/>
    <vehicle id="right_57" type="typeWE" route="right" depart="267" />
    <vehicle id="left_58" type="typeWE" route="left" depart="267" />
    <vehicle id="up_59" type="typeNS" route="up" depart="267" color="1,0,0"/>
    <vehicle id="up_60" type="typeNS" route="up" depart="293" color="1,0,0"/>
    <vehicle id="right_61" type="typeWE" route="right" depart="297" />
    <vehicle id="left_62" type="typeWE" route="left" depart="297" />
    <vehicle id="right_63" type="typeWE" route="right" depart="306" />
    <vehicle id="up_64" type="typeNS" route="up" depart="310" color="1,0,0"/>
    <vehicle id="right_65" type="typeWE" route="right" depart="317" />
    <vehicle id="left_66" type="typeWE" route="left" depart="317" />
    <vehicle id="down_67" type="typeNS" route="down" depart="338" color="1,0,0"/>
    <vehicle id="left_68" type="typeWE" route="left" depart="340" />
    <vehicle id="right_69" type="typeWE" route="right" depart="342" />
    <vehicle id="right_70" type="typeWE" route="right" depart="346" />
    <vehicle id="down_71" type="typeNS" route="down" depart="350" color="1,0,0"/>
    <vehicle id="right_72" type="typeWE" route="right" depart="351" />
    <vehicle id="up_73" type="typeNS" route="up" depart="358" color="1,0,0"/>
    <vehicle id="down_74" type="typeNS" route="down" depart="370" color="1,0,0"/>
    <vehicle id="left_75" type="typeWE" route="left" depart="374" />
    <vehicle id="left_76" type="typeWE" route="left" depart="392" />
    <vehicle id="left_77" type="typeWE" route="left" depart="400" />
    <vehicle id="right_78" type="typeWE" route="right" depart="402" />
    <vehicle id="down_79" type="typeNS" route="down" depart="402" color="1,0,0"/>
    <vehicle id="down_80" type="typeNS" route="down" depart="406" color="1,0,0"/>
    <vehicle id="down_81" type="typeNS" route="down" depart="425" color="1,0,0"/>
    <vehicle id="left_82" type="typeWE" route="left" depart="427" />
    <vehicle id="up_83" type="typeNS" route="up" depart="431" color="1,0,0"/>
    <vehicle id="up_84" type="typeNS" route="up" depart="441" color="1,0,0"/>
    <vehicle id="left_85" type="typeWE" route="left" depart="445" />
    <vehicle id="up_86" type="typeNS" route="up" depart="447" color="1,0,0"/>
    <vehicle id="right_87" type="typeWE" route="right" depart="448" />
    <vehicle id="right_88" type="typeWE" route="right" depart="449" />
    <vehicle id="up_89" type="typeNS" route="up" depart="454" color="1,0,0"/>
    <vehicle id="down_90" type="typeNS" route="down" depart="460" color="1,0,0"/>
    <vehicle id="left_91" type="typeWE" route="left" depart="472" />
    <vehicle id="down_92" type="typeNS" route="down" depart="489" color="1,0,0"/>
    <vehicle id="right_93" type="typeWE" route="right" depart="493" />
    <vehicle id="right_94" type="typeWE" route="right" depart="497" />
    <vehicle id="right_95" type="typeWE" route="right" depart="500" />
    <vehicle id="right_96" type="typeWE" route="right" depart="505" />
    <vehicle id="left_97" type="typeWE" route="left" depart="508" />
    <vehicle id="down_98" type="typeNS" route="down" depart="511" color="1,0,0"/>
    <vehicle id="up_99" type="typeNS" route="up" depart="511" color="1,0,0"/>
    <vehicle id="right_100" type="typeWE" route="right" depart="516" />
    <vehicle id="up_101" type="typeNS" route="up" depart="517" color="1,0,0"/>
    <vehicle id="right_102" type="typeWE" route="right" depart="529" />
    <vehicle id="up_103" type="typeNS" route="up" depart="540" color="1,0,0"/>
    <vehicle id="right_104" type="typeWE" route="right" depart="545" />
    <vehicle id="down_105" type="typeNS" route="down" depart="571" color="1,0,0"/>
    <vehicle id="right_106" type="typeWE" route="right" depart="573" />
    <vehicle id="down_107" type="typeNS" route="down" depart="579" color="1,0,0"/>
    <vehicle id="right_108" type="typeWE" route="right" depart="580" />
    <vehicle id="right_109" type="typeWE" route="right" depart="592" />
    <vehicle id="left_110" type="typeWE" route="left" depart="593" />
    <vehicle id="left_111" type="typeWE" route="left" depart="595" />
    <vehicle id="up_112" type="typeNS" route="up" depart="596" color="1,0,0"/>
    <vehicle id="right_113" type="typeWE" route="right" depart="600" />
    <vehicle id="left_114" type="typeWE" route="left" depart="601" />
    <vehicle id="down_115" type="typeNS" route="down" depart="602" color="1,0,0"/>
    <vehicle id="left_116" type="typeWE" route="left" depart="605" />
    <vehicle id="up_117" type="typeNS" route="up" depart="606" color="1,0,0"/>
    <vehicle id="up_118" type="typeNS" route="up" depart="607" color="1,0,0"/>
    <vehicle id="right_119" type="typeWE" route="right" depart="619" />
    <vehicle id="up_120" type="typeNS" route="up" depart="620" color="1,0,0"/>
    <vehicle id="up_121" type="typeNS" route="up" depart="628" color="1,0,0"/>
    <vehicle id="left_122" type="typeWE" route="left" depart="651" />
    <vehicle id="right_123" type="typeWE" route="right" depart="661" />
    <vehicle id="left_124" type="typeWE" route="left" depart="670" />
    <vehicle id="right_125" type="typeWE" route="right" depart="672" />
    <vehicle id="left_126" type="typeWE" route="left" depart="687" />
    <vehicle id="down_127" type="typeNS" route="down" depart="691" color="1,0,0"/>
    <vehicle id="right_128" type="typeWE" route="right" depart="696" />
    <vehicle id="right_129" type="typeWE" route="right" depart="705" />
    <vehicle id="up_130" type="typeNS" route="up" depart="712" color="1,0,0"/>
    <vehicle id="left_131" type="typeWE" route="left" depart="718" />
    <vehicle id="left_132" type="typeWE" route="left" depart="720" />
    <vehicle id="up_133" type="typeNS" route="up" depart="723" color="1,0,0"/>
    <vehicle id="up_134" type="typeNS" route="up" depart="727" color="1,0,0"/>
    <vehicle id="right_135" type="typeWE" route="right" depart="731" />
    <vehicle id="left_136" type="typeWE" route="left" depart="733" />
    <vehicle id="right_137" type="typeWE" route="right" depart="741" />
    <vehicle id="right_138" type="typeWE" route="right" depart="745" />
    <vehicle id="down_139" type="typeNS" route="down" depart="747" color="1,0,0"/>
    <vehicle id="up_140" type="typeNS" route="up" depart="766" color="1,0,0"/>
    <vehicle id="down_141" type="typeNS" route="down" depart="768" color="1,0,0"/>
    <vehicle id="left_142" type="typeWE" route="left" depart="781" />
    <vehicle id="right_143" type="typeWE" route="right" depart="783" />
    <vehicle id="down_144" type="typeNS" route="down" depart="783" color="1,0,0"/>
    <vehicle id="left_145" type="typeWE" route="left" depart="805" />
    <vehicle id="down_146" type="typeNS" route="down" depart="823" color="1,0,0"/>
    <vehicle id="down_147" type="typeNS" route="down" depart="824" color="1,0,0"/>
    <vehicle id="down_148" type="typeNS" route="down" depart="826" color="1,0,0"/>
    <vehicle id="left_149" type="typeWE" route="left" depart="828" />
    <vehicle id="down_150" type="typeNS" route="down" depart="834" color="1,0,0"/>
    <vehicle id="left_151" type="typeWE" route="left" depart="836" />
    <vehicle id="down_152" type="typeNS" route="down" depart="840" color="1,0,0"/>
    <vehicle id="down_153" type="typeNS" route="down" depart="844" color="1,0,0"/>
    <vehicle id="down_154" type="typeNS" route="down" depart="852" color="1,0,0"/>
    <vehicle id="up_155" type="typeNS" route="up" depart="853" color="1,0,0"/>
    <vehicle id="left_156" type="typeWE" route="left" depart="876" />
    <vehicle id="up_157" type="typeNS" route="up" depart="891" color="1,0,0"/>
    <vehicle id="down_158" type="typeNS" route="down" depart="893" color="1,0,0"/>
    <vehicle id="down_159" type="typeNS" route="down" depart="897" color="1,0,0"/>
    <vehicle id="up_160" type="typeNS" route="up" depart="902" color="1,0,0"/>
    <vehicle id="left_161" type="typeWE" route="left" depart="906" />
    <vehicle id="right_162" type="typeWE" route="right" depart="907" />
    <vehicle id="right_163" type="typeWE" route="right" depart="911" />
    <vehicle id="left_164" type="typeWE" route="left" depart="913" />
    <vehicle id="up_165" type="typeNS" route="up" depart="915" color="1,0,0"/>
    <vehicle id="down_166" type="typeNS" route="down" depart="922" color="1,0,0"/>
    <vehicle id="right_167" type="typeWE" route="right" depart="925" />
    <vehicle id="right_168" type="typeWE" route="right" depart="926" />
    <vehicle id="up_169" type="typeNS" route="up" depart="931" color="1,0,0"/>
    <vehicle id="down_170" type="typeNS" route="down" depart="934" color="1,0,0"/>
    <vehicle id="right_171" type="typeWE" route="right" depart="959" />
    <vehicle id="left_172" type="typeWE" route="left" depart="962" />
    <vehicle id="left_173" type="typeWE" route="left" depart="968" />
    <vehicle id="up_174" type="typeNS" route="up" depart="968" color="1,0,0"/>
    <vehicle id="left_175" type="typeWE" route="left" depart="970" />
    <vehicle id="right_176" type="typeWE" route="right" depart="975" />
    <vehicle id="right_177" type="typeWE" route="right" depart="978" />
    <vehicle id="left_178" type="typeWE" route="left" depart="991" />
    <vehicle id="left_179" type="typeWE" route="left" depart="1001" />
    <vehicle id="up_180" type="typeNS" route="up" depart="1001" color="1,0,0"/>
    <vehicle id="down_181" type="typeNS" route="down" depart="1016" color="1,0,0"/>
    <vehicle id="right_182" type="typeWE" route="right" depart="1018" />
    <vehicle id="left_183" type="typeWE" route="left" depart="1022" />
    <vehicle id="right_184" type="typeWE" route="right" depart="1048" />
    <vehicle id="left_185" type="typeWE" route="left" depart="1051" />
    <vehicle id="down_186" type="typeNS" route="down" depart="1053" color="1,0,0"/>
    <vehicle id="up_187" type="typeNS" route="up" depart="1053" color="1,0,0"/>
    <vehicle id="right_188" type="typeWE" route="right" depart="1057" />
    <vehicle id="left_189" type="typeWE" route="left" depart="1061" />
    <vehicle id="down_190" type="typeNS" route="down" depart="1063" color="1,0,0"/>
    <vehicle id="left_191" type="typeWE" route="left" depart="1064" />
    <vehicle id="down_192" type="typeNS" route="down" depart="1068" color="1,0,0"/>
    <vehicle id="right_193" type="typeWE" route="right" depart="1072" />
    <vehicle id="up_194" type="typeNS" route="up" depart="1073" color="1,0,0"/>
    <vehicle id="left_195" type="typeWE" route="left" depart="1075" />
    <vehicle id="down_196" type="typeNS" route="down" depart="1082" color="1,0,0"/>
    <vehicle id="up_197" type="typeNS" route="up" depart="1092" color="1,0,0"/>
    <vehicle id="left_198" type="typeWE" route="left" depart="1093" />
    <vehicle id="down_199" type="typeNS" route="down" depart="1099" color="1,0,0"/>
    <vehicle id="up_200" type="typeNS" route="up" depart="1103" color="1,0,0"/>
    <vehicle id="up_201" type="typeNS" route="up" depart="1112" color="1,0,0"/>
    <vehicle id="left_202" type="typeWE" route="left" depart="1114" />
    <vehicle id="down_203" type="typeNS" route="down" depart="1118" color="1,0,0"/>
    <vehicle id="right_204" type="typeWE" route="right" depart="1119" />
    <vehicle id="right_205" type="typeWE" route="right" depart="1124" />
    <vehicle id="up_206" type="typeNS" route="up" depart="1129" color="1,0,0"/>
    <vehicle id="up_207" type="typeNS" route="up" depart="1132" color="1,0,0"/>
    <vehicle id="up_208" type="typeNS" route="up" depart="1134" color="1,0,0"/>
    <vehicle id="down_209" type="typeNS" route="down" depart="1135" color="1,0,0"/>
    <vehicle id="up_210" type="typeNS" route="up" depart="1140" color="1,0,0"/>
    <vehicle id="left_211" type="typeWE" route="left" depart="1165" />
    <vehicle id="down_212" type="typeNS" route="down" depart="1165" color="1,0,0"/>
    <vehicle id="up_213" type="typeNS" route="up" depart="1172" color="1,0,0"/>
    <vehicle id="left_214" type="typeWE" route="left" depart="1179" />
    <vehicle id="left_215" type="typeWE" route="left" depart="1184" />
    <vehicle id="left_216" type="typeWE" route="left" depart="1188" />
    <vehicle id="left_217" type="typeWE" route="left" depart="1189" />
    <vehicle id="left_218" type="typeWE" route="left" depart="1195" />
    <vehicle id="down_219" type="typeNS" route="down" depart="1195" color="1,0,0"/>
    <vehicle id="left_220" type="typeWE" route="left" depart="1199" />
    <vehicle id="down_221" type="typeNS" route="down" depart="1202" color="1,0,0"/>
    <vehicle id="up_222" type="typeNS" route="up" depart="1205" color="1,0,0"/>
    <vehicle id="up_223" type="typeNS" route="up" depart="1211" color="1,0,0"/>
    <vehicle id="down_224" type="typeNS" route="down" depart="1231" color="1,0,0"/>
    <vehicle id="down_225" type="typeNS" route="down" depart="1232" color="1,0,0"/>
    <vehicle id="left_226" type="typeWE" route="left" depart="1236" />
    <vehicle id="up_227" type="typeNS" route="up" depart="1239" color="1,0,0"/>
    <vehicle id="right_228" type="typeWE" route="right" depart="1246" />
    <vehicle id="up_229" type="typeNS" route="up" depart="1246" color="1,0,0"/>
    <vehicle id="right_230" type="typeWE" route="right" depart="1251" />
    <vehicle id="up_231" type="typeNS" route="up" depart="1256" color="1,0,0"/>
    <vehicle id="left_232" type="typeWE" route="left" depart="1264" />
    <vehicle id="right_233" type="typeWE" route="right" depart="1268" />
    <vehicle id="down_234" type="typeNS" route="down" depart="1274" color="1,0,0"/>
    <vehicle id="up_235" type="typeNS" route="up" depart="1280" color="1,0,0"/>
    <vehicle id="up_236" type="typeNS" route="up" depart="1282" color="1,0,0"/>
    <vehicle id="right_237" type="typeWE" route="right" depart="1284" />
    <vehicle id="right_238" type="typeWE" route="right" depart="1295" />
    <vehicle id="left_239" type="typeWE" route="left" depart="1296" />
    <vehicle id="left_240" type="typeWE" route="left" depart="1298" />
    <vehicle id="left_241" type="typeWE" route="left" depart="1301" />
    <vehicle id="up_242" type="typeNS" route="up" depart="1305" color="1,0,0"/>
    <vehicle id="right_243" type="typeWE" route="right" depart="1312" />
    <vehicle id="right_244" type="typeWE" route="right" depart="1313" />
    <vehicle id="left_245" type="typeWE" route="left" depart="1325" />
    <vehicle id="down_246" type="typeNS" route="down" depart="1326" color="1,0,0"/>
    <vehicle id="right_247" type="typeWE" route="right" depart="1327" />
    <vehicle id="left_248" type="typeWE" route="left" depart="1332" />
    <vehicle id="left_249" type="typeWE" route="left" depart="1334" />
    <vehicle id="down_250" type="typeNS" route="down" depart="1347" color="1,0,0"/>
    <vehicle id="right_251" type="typeWE" route="right" depart="1348" />
    <vehicle id="left_252" type="typeWE" route="left" depart="1358" />
    <vehicle id="up_253" type="typeNS" route="up" depart="1364" color="1,0,0"/>
    <vehicle id="down_254" type="typeNS" route="down" depart="1375" color="1,0,0"/>
    <vehicle id="right_255" type="typeWE" route="right" depart="1381" />
    <vehicle id="down_256" type="typeNS" route="down" depart="1385" color="1,0,0"/>
    <vehicle id="left_257" type="typeWE" route="left" depart="1389" />
    <vehicle id="down_258" type="typeNS" route="down" depart="1392" color="1,0,0"/>
    <vehicle id="up_259" type="typeNS" route="up" depart="1394" color="1,0,0"/>
    <vehicle id="down_260" type="typeNS" route="down" depart="1398" color="1,0,0"/>
    <vehicle id="up_261" type="typeNS" route="up" depart="1410" color="1,0,0"/>
    <vehicle id="down_262" type="typeNS" route="down" depart="1414" color="1,0,0"/>
    <vehicle id="up_263" type="typeNS" route="up" depart="1417" color="1,0,0"/>
    <vehicle id="right_264" type="typeWE" route="right" depart="1437" />
    <vehicle id="up_265" type="typeNS" route="up" depart="1437" color="1,0,0"/>
    <vehicle id="left_266" type="typeWE" route="left" depart="1442" />
    <vehicle id="right_267" type="typeWE" route="right" depart="1464" />
    <vehicle id="up_268" type="typeNS" route="up" depart="1474" color="1,0,0"/>
    <vehicle id="left_269" type="typeWE" route="left" depart="1481" />
    <vehicle id="down_270" type="typeNS" route="down" depart="1481" color="1,0,0"/>
    <vehicle id="up_271" type="typeNS" route="up" depart="1485" color="1,0,0"/>
    <vehicle id="down_272" type="typeNS" route="down" depart="1487" color="1,0,0"/>
    <vehicle id="right_273" type="typeWE" route="right" depart="1495" />
    <vehicle id="right_274" type="typeWE" route="right" depart="1497" />
    <vehicle id="right_275" type="typeWE" route="right" depart="1501" />
    <vehicle id="down_276" type="typeNS" route="down" depart="1502" color="1,0,0"/>
    <vehicle id="up_277" type="typeNS" route="up" depart="1509" color="1,0,0"/>
    <vehicle id="up_278" type="typeNS" route="up" depart="1521" color="1,0,0"/>
    <vehicle id="left_279" type="typeWE" route="left" depart="1531" />
    <vehicle id="down_280" type="typeNS" route="down" depart="1533" color="1,0,0"/>
    <vehicle id="down_281" type="typeNS" route="down" depart="1534" color="1,0,0"/>
    <vehicle id="right_282" type="typeWE" route="right" depart="1536" />
    <vehicle id="right_283" type="typeWE" route="right" depart="1546" />
    <vehicle id="right_284" type="typeWE" route="right" depart="1547" />
    <vehicle id="left_285" type="typeWE" route="left" depart="1557" />
    <vehicle id="right_286" type="typeWE" route="right" depart="1562" />
    <vehicle id="up_287" type="typeNS" route="up" depart="1564" color="1,0,0"/>
    <vehicle id="left_288" type="typeWE" route="left" depart="1568" />
    <vehicle id="up_289" type="typeNS" route="up" depart="1570" color="1,0,0"/>
    <vehicle id="up_290" type="typeNS" route="up" depart="1577" color="1,0,0"/>
    <vehicle id="right_291" type="typeWE" route="right" depart="1578" />
    <vehicle id="left_292" type="typeWE" route="left" depart="1586" />
    <vehicle id="left_293" type="typeWE" route="left" depart="1591" />
    <vehicle id="left_294" type="typeWE" route="left" depart="1593" />
    <vehicle id="up_295" type="typeNS" route="up" depart="1596" color="1,0,0"/>
    <vehicle id="down_296" type="typeNS" route="down" depart="1601" color="1,0,0"/>
    <vehicle id="up_297" type="typeNS" route="up" depart="1616" color="1,0,0"/>
    <vehicle id="left_298" type="typeWE" route="left" depart="1618" />
    <vehicle id="right_299" type="typeWE" route="right" depart="1623" />
    <vehicle id="up_300" type="typeNS" route="up" depart="1623" color="1,0,0"/>
    <vehicle id="right_301" type="typeWE" route="right" depart="1627" />
    <vehicle id="left_302" type="typeWE" route="left" depart="1628" />
    <vehicle id="left_303" type="typeWE" route="left" depart="1629" />
    <vehicle id="right_304" type="typeWE" route="right" depart="1638" />
    <vehicle id="right_305" type="typeWE" route="right" depart="1639" />
    <vehicle id="left_306" type="typeWE" route="left" depart="1640" />
    <vehicle id="right_307" type="typeWE" route="right" depart="1644" />
    <vehicle id="left_308" type="typeWE" route="left" depart="1651" />
    <vehicle id="right_309" type="typeWE" route="right" depart="1655" />
    <vehicle id="down_310" type="typeNS" route="down" depart="1657" color="1,0,0"/>
    <vehicle id="up_311" type="typeNS" route="up" depart="1660" color="1,0,0"/>
    <vehicle id="down_312" type="typeNS" route="down" depart="1663" color="1,0,0"/>
    <vehicle id="down_313" type="typeNS" route="down" depart="1666" color="1,0,0"/>
    <vehicle id="up_314" type="typeNS" route="up" depart="1666" color="1,0,0"/>
    <vehicle id="right_315" type="typeWE" route="right" depart="1672" />
    <vehicle id="left_316" type="typeWE" route="left" depart="1678" />
    <vehicle id="down_317" type="typeNS" route="down" depart="1683" color="1,0,0"/>
    <vehicle id="left_318" type="typeWE" route="left" depart="1685" />
    <vehicle id="right_319" type="typeWE" route="right" depart="1700" />
    <vehicle id="left_320" type="typeWE" route="left" depart="1700" />
    <vehicle id="right_321" type="typeWE" route="right" depart="1709" />
    <vehicle id="right_322" type="typeWE" route="right" depart="1711" />
    <vehicle id="up_323" type="typeNS" route="up" depart="1711" color="1,0,0"/>
    <vehicle id="right_324" type="typeWE" route="right" depart="1718" />
    <vehicle id="down_325" type="typeNS" route="down" depart="1719" color="1,0,0"/>
    <vehicle id="left_326" type="typeWE" route="left" depart="1738" />
    <vehicle id="down_327" type="typeNS" route="down" depart="1739" color="1,0,0"/>
    <vehicle id="right_328" type="typeWE" route="right" depart="1743" />
    <vehicle id="right_329" type="typeWE" route="right" depart="1748" />
    <vehicle id="right_330" type="typeWE" route="right" depart="1754" />
    <vehicle id="right_331" type="typeWE" route="right" depart="1758" />
    <vehicle id="left_332" type="typeWE" route="left" depart="1758" />
    <vehicle id="left_333" type="typeWE" route="left" depart="1761" />
    <vehicle id="up_334" type="typeNS" route="up" depart="1761" color="1,0,0"/>
    <vehicle id="up_335" type="typeNS" route="up" depart="1768" color="1,0,0"/>
    <vehicle id="up_336" type="typeNS" route="up" depart="1780" color="1,0,0"/>
    <vehicle id="up_337" type="typeNS" route="up" depart="1781" color="1,0,0"/>
    <vehicle id="down_338" type="typeNS" route="down" depart="1795" color="1,0,0"/>
    <vehicle id="down_339" type="typeNS" route="down" depart="1809" color="1,0,0"/>
    <vehicle id="right_340" type="typeWE" route="right" depart="1810" />
    <vehicle id="left_341" type="typeWE" route="left" depart="1811" />
    <vehicle id="right_342" type="typeWE" route="right" depart="1819" />
    <vehicle id="up_343" type="typeNS" route="up" depart="1819" color="1,0,0"/>
    <vehicle id="left_344" type="typeWE" route="left" depart="1824" />
    <vehicle id="up_345" type="typeNS" route="up" depart="1825" color="1,0,0"/>
    <vehicle id="up_346" type="typeNS" route="up" depart="1826" color="1,0,0"/>
    <vehicle id="right_347" type="typeWE" route="right" depart="1832" />
    <vehicle id="right_348" type="typeWE" route="right" depart="1842" />
    <vehicle id="right_349" type="typeWE" route="right" depart="1850" />
    <vehicle id="down_350" type="typeNS" route="down" depart="1851" color="1,0,0"/>
    <vehicle id="up_351" type="typeNS" route="up" depart="1856" color="1,0,0"/>
    <vehicle id="down_352" type="typeNS" route="down" depart="1861" color="1,0,0"/>
    <vehicle id="left_353" type="typeWE" route="left" depart="1865" />
    <vehicle id="up_354" type="typeNS" route="up" depart="1885" color="1,0,0"/>
    <vehicle id="up_355" type="typeNS" route="up" depart="1889" color="1,0,0"/>
    <vehicle id="down_356" type="typeNS" route="down" depart="1891" color="1,0,0"/>
    <vehicle id="down_357" type="typeNS" route="down" depart="1894" color="1,0,0"/>
    <vehicle id="down_358" type="typeNS" route="down" depart="1906" color="1,0,0"/>
    <vehicle id="up_359" type="typeNS" route="up" depart="1906" color="1,0,0"/>
    <vehicle id="up_360" type="typeNS" route="up" depart="1908" color="1,0,0"/>
    <vehicle id="left_361" type="typeWE" route="left" depart="1912" />
    <vehicle id="left_362" type="typeWE" route="left" depart="1915" />
    <vehicle id="down_363" type="typeNS" route="down" depart="1915" color="1,0,0"/>
    <vehicle id="up_364" type="typeNS" route="up" depart="1923" color="1,0,0"/>
    <vehicle id="left_365" type="typeWE" route="left" depart="1925" />
    <vehicle id="right_366" type="typeWE" route="right" depart="1928" />
    <vehicle id="down_367" type="typeNS" route="down" depart="1929" color="1,0,0"/>
    <vehicle id="up_368" type="typeNS" route="up" depart="1931" color="1,0,0"/>
    <vehicle id="left_369" type="typeWE" route="left" depart="1932" />
    <vehicle id="up_370" type="typeNS" route="up" depart="1936" color="1,0,0"/>
    <vehicle id="right_371" type="typeWE" route="right" depart="1942" />
    <vehicle id="down_372" type="typeNS" route="down" depart="1944" color="1,0,0"/>
    <vehicle id="down_373" type="typeNS" route="down" depart="1946" color="1,0,0"/>
    <vehicle id="up_374" type="typeNS" route="up" depart="1946" color="1,0,0"/>
    <vehicle id="left_375" type="typeWE" route="left" depart="1957" />
    <vehicle id="right_376" type="typeWE" route="right" depart="1962" />
    <vehicle id="left_377" type="typeWE" route="left" depart="1965" />
    <vehicle id="down_378" type="typeNS" route="down" depart="1973" color="1,0,0"/>
    <vehicle id="left_379" type="typeWE" route="left" depart="1975" />
    <vehicle id="right_380" type="typeWE" route="right" depart="1988" />
    <vehicle id="left_381" type="typeWE" route="left" depart="1989" />
    <vehicle id="left_382" type="typeWE" route="left" depart="1990" />
    <vehicle id="down_383" type="typeNS" route="down" depart="1993" color="1,0,0"/>
    <vehicle id="left_384" type="typeWE" route="left" depart="1999" />
    <vehicle id="down_385" type="typeNS" route="down" depart="2001" color="1,0,0"/>
    <vehicle id="left_386" type="typeWE" route="left" depart="2005" />
    <vehicle id="down_387" type="typeNS" route="down" depart="2011" color="1,0,0"/>