<routes>
            <vType id="typeWE" accel="0.8" decel="4.5" sigma="0.5" length="5" minGap="2.5" maxSpeed="16.67" guiShape="passenger"/>
            <vType id="typeNS" accel="0.8" decel="4.5" sigma="0.5" length="7" minGap="3" maxSpeed="25" guiShape="bus"/>
            <route id="right" edges="51o 1i 2o 52i" />
            <route id="left" edges="52o 2i 1o 51i" />
            <route id="up" edges="53o 3i 4o 54i" />
            <route id="down" edges="54o 4i 3o 53i" />
    <vehicle id="up_0" type="typeNS" route="up" depart="0" color="1,0,0"/>
    <vehicle id="left_1" type="typeWE" route="left" depart="2" />
    <vehicle id="down_2" type="typeNS" route="down" depart="5" color="1,0,0"/>
    <vehicle id="right_3" type="typeWE" route="right" depart="6" />
    <vehicle id="up_4" type="typeNS" route="up" depart="12" color="1,0,0"/>
    <vehicle id="left_5" type="typeWE" route="left" depart="13" />
    <vehicle id="right_6" type="typeWE" route="right" depart="19" />
    <vehicle id="up_7" type="typeNS" route="up" depart="21" color="1,0,0"/>
    <vehicle id="right_8" type="typeWE" route="right" depart="22" />
    <vehicle id="right_9" type="typeWE" route="right" depart="25" />
    <vehicle id="left_10" type="typeWE" route="left" depart="28" />
    <vehicle id="up_11" type="typeNS" route="up" depart="30" color="1,0,0"/>
    <vehicle id="left_12" type="typeWE" route="left" depart="33" />
    <vehicle id="up_13" type="typeNS" route="up" depart="33" color="1,0,0"/>
    <vehicle id="left_14" type="typeWE" route="left" depart="34" />
    <vehicle id="down_15" type="typeNS" route="down" depart="36" color="1,0,0"/>
    <vehicle id="right_16" type="typeWE" route="right" depart="37" />
    <vehicle id="left_17" type="typeWE" route="left" depart="37" />
    <vehicle id="right_18" type="typeWE" route="right" depart="39" />
    <vehicle id="up_19" type="typeNS" route="up" depart="40" color="1,0,0"/>
    <vehicle id="right_20" type="typeWE" route="right" depart="42" />
    <vehicle id="up_21" type="typeNS" route="up" depart="42" color="1,0,0"/>
    <vehicle id="left_22" type="typeWE" route="left" depart="47" />
    <vehicle id="left_23" type="typeWE" route="left" depart="54" />
    <vehicle id="down_24" type="typeNS" route="down" depart="54" color="1,0,0"/>
    <vehicle id="up_25" type="typeNS" route="up" depart="57" color="1,0,0"/>
    <vehicle id="up_26" type="typeNS" route="up" depart="61" color="1,0,0"/>
    <vehicle id="right_27" type="typeWE" route="right" depart="64" />
    <vehicle id="down_28" type="typeNS" route="down" depart="65" color="1,0,0"/>
    <vehicle id="left_29" type="typeWE" route="left" depart="66" />
    <vehicle id="left_30" type="typeWE" route="left" depart="71" />
    <vehicle id="down_31" type="typeNS" route="down" depart="72" color="1,0,0"/>
    <vehicle id="left_32" type="typeWE" route="left" depart="76" />
    <vehicle id="up_33" type="typeNS" route="up" depart="77" color="1,0,0"/>
    <vehicle id="down_34" type="typeNS" route="down" depart="80" color="1,0,0"/>
    <vehicle id="up_35" type="typeNS" route="up" depart="86" color="1,0,0"/>
    <vehicle id="down_36" type="typeNS" route="down" depart="87" color="1,0,0"/>
    <vehicle id="up_37" type="typeNS" route="up" depart="87" color="1,0,0"/>
    <vehicle id="right_38" type="typeWE" route="right" depart="91" />
    <vehicle id="right_39" type="typeWE" route="right" depart="92" />
    <vehicle id="right_40" type="typeWE" route="right" depart="99" />
</routes>
