<routes>
            <vType id="typeWE" accel="0.8" decel="4.5" sigma="0.5" length="5" minGap="2.5" maxSpeed="16.67" guiShape="passenger"/>
            <vType id="typeNS" accel="0.8" decel="4.5" sigma="0.5" length="5" minGap="2.5" maxSpeed="16.67" guiShape="passenger"/>
            <route id="right" edges="51o 1i 2o 52i" />
            <route id="left" edges="52o 2i 1o 51i" />
            <route id="up" edges="53o 3i 4o 54i" />
            <route id="down" edges="54o 4i 3o 53i" />
    <vehicle id="down_0" type="typeNS" route="down" depart="10" color="1,0,0"/>
    <vehicle id="left_1" type="typeWE" route="left" depart="12" />
    <vehicle id="left_2" type="typeWE" route="left" depart="17" />
    <vehicle id="down_3" type="typeNS" route="down" depart="17" color="1,0,0"/>
    <vehicle id="up_4" type="typeNS" route="up" depart="20" color="1,0,0"/>
    <vehicle id="down_5" type="typeNS" route="down" depart="29" color="1,0,0"/>
    <vehicle id="right_6" type="typeWE" route="right" depart="32" />
    <vehicle id="right_7" type="typeWE" route="right" depart="51" />
    <vehicle id="right_8" type="typeWE" route="right" depart="57" />
    <vehicle id="left_9" type="typeWE" route="left" depart="59" />
    <vehicle id="right_10" type="typeWE" route="right" depart="60" />
    <vehicle id="up_11" type="typeNS" route="up" depart="64" color="1,0,0"/>
    <vehicle id="left_12" type="typeWE" route="left" depart="67" />
    <vehicle id="up_13" type="typeNS" route="up" depart="81" color="1,0,0"/>
    <vehicle id="up_14" type="typeNS" route="up" depart="83" color="1,0,0"/>
    <vehicle id="down_15" type="typeNS" route="down" depart="89" color="1,0,0"/>
    <vehicle id="up_16" type="typeNS" route="up" depart="93" color="1,0,0"/>
    <vehicle id="left_17" type="typeWE" route="left" depart="94" />
    <vehicle id="down_18" type="typeNS" route="down" depart="99" color="1,0,0"/>
    <vehicle id="up_19" type="typeNS" route="up" depart="104" color="1,0,0"/>
    <vehicle id="left_20" type="typeWE" route="left" depart="111" />
    <vehicle id="left_21" type="typeWE" route="left" depart="114" />
    <vehicle id="right_22" type="typeWE" route="right" depart="120" />
    <vehicle id="right_23" type="typeWE" route="right" depart="125" />
    <vehicle id="down_24" type="typeNS" route="down" depart="141" color="1,0,0"/>
    <vehicle id="up_25" type="typeNS" route="up" depart="143" color="1,0,0"/>
    <vehicle id="up_26" type="typeNS" route="up" depart="144" color="1,0,0"/>
    <vehicle id="left_27" type="typeWE" route="left" depart="148" />
    <vehicle id="up_28" type="typeNS" route="up" depart="154" color="1,0,0"/>
    <vehicle id="up_29" type="typeNS" route="up" depart="159" color="1,0,0"/>
    <vehicle id="left_30" type="typeWE" route="left" depart="161" />
    <vehicle id="left_31" type="typeWE" route="left" depart="166" />
    <vehicle id="down_32" type="typeNS" route="down" depart="171" color="1,0,0"/>
    <vehicle id="up_33" type="typeNS" route="up" depart="173" color="1,0,0"/>
    <vehicle id="left_34" type="typeWE" route="left" depart="199" />
    <vehicle id="right_35" type="typeWE" route="right" depart="201" />
    <vehicle id="left_36" type="typeWE" route="left" depart="202" />
    <vehicle id="right_37" type="typeWE" route="right" depart="217" />
    <vehicle id="down_38" type="typeNS" route="down" depart="222" color="1,0,0"/>
    <vehicle id="right_39" type="typeWE" route="right" depart="225" />
    <vehicle id="up_40" type="typeNS" route="up" depart="229" color="1,0,0"/>
    <vehicle id="down_41" type="typeNS" route="down" depart="239" color="1,0,0"/>
    <vehicle id="right_42" type="typeWE" route="right" depart="240" />
    <vehicle id="left_43" type="typeWE" route="left" depart="244" />
    <vehicle id="down_44" type="typeNS" route="down" depart="244" color="1,0,0"/>
    <vehicle id="down_45" type="typeNS" route="down" depart="264" color="1,0,0"/>
    <vehicle id="up_46" type="typeNS" route="up" depart="268" color="1,0,0"/>
    <vehicle id="up_47" type="typeNS" route="up" depart="279" color="1,0,0"/>
    <vehicle id="left_48" type="typeWE" route="left" depart="281" />
    <vehicle id="right_49" type="typeWE" route="right" depart="282" />
    <vehicle id="up_50" type="typeNS" route="up" depart="287" color="1,0,0"/>
    <vehicle id="up_51" type="typeNS" route="up" depart="304" color="1,0,0"/>
    <vehicle id="down_52" type="typeNS" route="down" depart="306" color="1,0,0"/>
    <vehicle id="down_53" type="typeNS" route="down" depart="308" color="1,0,0"/>
    <vehicle id="up_54" type="typeNS" route="up" depart="310" color="1,0,0"/>
    <vehicle id="down_55" type="typeNS" route="down" depart="311" color="1,0,0"/>
    <vehicle id="right_56" type="typeWE" route="right" depart="318" />
    <vehicle id="down_57" type="typeNS" route="down" depart="319" color="1,0,0"/>
    <vehicle id="up_58" type="typeNS" route="up" depart="321" color="1,0,0"/>
    <vehicle id="left_59" type="typeWE" route="left" depart="324" />
    <vehicle id="up_60" type="typeNS" route="up" depart="324" color="1,0,0"/>
    <vehicle id="down_61" type="typeNS" route="down" depart="325" color="1,0,0"/>
    <vehicle id="up_62" type="typeNS" route="up" depart="332" color="1,0,0"/>
    <vehicle id="left_63" type="typeWE" route="left" depart="336" />
    <vehicle id="down_64" type="typeNS" route="down" depart="337" color="1,0,0"/>
    <vehicle id="left_65" type="typeWE" route="left" depart="345" />
    <vehicle id="down_66" type="typeNS" route="down" depart="350" color="1,0,0"/>
    <vehicle id="left_67" type="typeWE" route="left" depart="352" />
    <vehicle id="down_68" type="typeNS" route="down" depart="360" color="1,0,0"/>
    <vehicle id="up_69" type="typeNS" route="up" depart="369" color="1,0,0"/>
    <vehicle id="down_70" type="typeNS" route="down" depart="373" color="1,0,0"/>
    <vehicle id="left_71" type="typeWE" route="left" depart="375" />
    <vehicle id="right_72" type="typeWE" route="right" depart="381" />
    <vehicle id="left_73" type="typeWE" route="left" depart="381" />
    <vehicle id="down_74" type="typeNS" route="down" depart="382" color="1,0,0"/>
    <vehicle id="right_75" type="typeWE" route="right" depart="383" />
    <vehicle id="up_76" type="typeNS" route="up" depart="383" color="1,0,0"/>
    <vehicle id="down_77" type="typeNS" route="down" depart="391" color="1,0,0"/>
    <vehicle id="right_78" type="typeWE" route="right" depart="407" />
    <vehicle id="down_79" type="typeNS" route="down" depart="411" color="1,0,0"/>
    <vehicle id="down_80" type="typeNS" route="down" depart="415" color="1,0,0"/>
    <vehicle id="right_81" type="typeWE" route="right" depart="416" />
    <vehicle id="down_82" type="typeNS" route="down" depart="420" color="1,0,0"/>
    <vehicle id="up_83" type="typeNS" route="up" depart="429" color="1,0,0"/>
    <vehicle id="right_84" type="typeWE" route="right" depart="435" />
    <vehicle id="up_85" type="typeNS" route="up" depart="442" color="1,0,0"/>
    <vehicle id="up_86" type="typeNS" route="up" depart="444" color="1,0,0"/>
    <vehicle id="up_87" type="typeNS" route="up" depart="448" color="1,0,0"/>
    <vehicle id="right_88" type="typeWE" route="right" depart="470" />
    <vehicle id="down_89" type="typeNS" route="down" depart="472" color="1,0,0"/>
    <vehicle id="up_90" type="typeNS" route="up" depart="477" color="1,0,0"/>
    <vehicle id="up_91" type="typeNS" route="up" depart="479" color="1,0,0"/>
    <vehicle id="right_92" type="typeWE" route="right" depart="492" />
    <vehicle id="down_93" type="typeNS" route="down" depart="495" color="1,0,0"/>
    <vehicle id="left_94" type="typeWE" route="left" depart="500" />
    <vehicle id="left_95" type="typeWE" route="left" depart="513" />
    <vehicle id="down_96" type="typeNS" route="down" depart="527" color="1,0,0"/>
    <vehicle id="down_97" type="typeNS" route="down" depart="533" color="1,0,0"/>
    <vehicle id="down_98" type="typeNS" route="down" depart="539" color="1,0,0"/>
    <vehicle id="up_99" type="typeNS" route="up" depart="545" color="1,0,0"/>
    <vehicle id="right_100" type="typeWE" route="right" depart="547" />
    <vehicle id="down_101" type="typeNS" route="down" depart="547" color="1,0,0"/>
    <vehicle id="up_102" type="typeNS" route="up" depart="554" color="1,0,0"/>
    <vehicle id="up_103" type="typeNS" route="up" depart="555" color="1,0,0"/>
    <vehicle id="right_104" type="typeWE" route="right" depart="559" />
    <vehicle id="left_105" type="typeWE" route="left" depart="576" />
    <vehicle id="left_106" type="typeWE" route="left" depart="588" />
    <vehicle id="left_107" type="typeWE" route="left" depart="589" />
    <vehicle id="down_108" type="typeNS" route="down" depart="592" color="1,0,0"/>
    <vehicle id="down_109" type="typeNS" route="down" depart="595" color="1,0,0"/>
    <vehicle id="right_110" type="typeWE" route="right" depart="599" />
    <vehicle id="left_111" type="typeWE" route="left" depart="609" />
    <vehicle id="right_112" type="typeWE" route="right" depart="610" />
    <vehicle id="down_113" type="typeNS" route="down" depart="617" color="1,0,0"/>
    <vehicle id="left_114" type="typeWE" route="left" depart="624" />
    <vehicle id="right_115" type="typeWE" route="right" depart="636" />
    <vehicle id="down_116" type="typeNS" route="down" depart="637" color="1,0,0"/>
    <vehicle id="up_117" type="typeNS" route="up" depart="640" color="1,0,0"/>
    <vehicle id="down_118" type="typeNS" route="down" depart="641" color="1,0,0"/>
    <vehicle id="down_119" type="typeNS" route="down" depart="646" color="1,0,0"/>
    <vehicle id="left_120" type="typeWE" route="left" depart="662" />
    <vehicle id="down_121" type="typeNS" route="down" depart="676" color="1,0,0"/>
    <vehicle id="up_122" type="typeNS" route="up" depart="678" color="1,0,0"/>
    <vehicle id="right_123" type="typeWE" route="right" depart="680" />
    <vehicle id="up_124" type="typeNS" route="up" depart="680" color="1,0,0"/>
    <vehicle id="left_125" type="typeWE" route="left" depart="687" />
    <vehicle id="down_126" type="typeNS" route="down" depart="696" color="1,0,0"/>
    <vehicle id="down_127" type="typeNS" route="down" depart="702" color="1,0,0"/>
    <vehicle id="left_128" type="typeWE" route="left" depart="706" />
    <vehicle id="right_129" type="typeWE" route="right" depart="708" />
    <vehicle id="down_130" type="typeNS" route="down" depart="708" color="1,0,0"/>
    <vehicle id="down_131" type="typeNS" route="down" depart="711" color="1,0,0"/>
    <vehicle id="down_132" type="typeNS" route="down" depart="712" color="1,0,0"/>
    <vehicle id="right_133" type="typeWE" route="right" depart="713" />
    <vehicle id="up_134" type="typeNS" route="up" depart="719" color="1,0,0"/>
    <vehicle id="down_135" type="typeNS" route="down" depart="728" color="1,0,0"/>
    <vehicle id="left_136" type="typeWE" route="left" depart="733" />
    <vehicle id="left_137" type="typeWE" route="left" depart="739" />
    <vehicle id="down_138" type="typeNS" route="down" depart="739" color="1,0,0"/>
    <vehicle id="down_139" type="typeNS" route="down" depart="741" color="1,0,0"/>
    <vehicle id="down_140" type="typeNS" route="down" depart="748" color="1,0,0"/>
    <vehicle id="left_141" type="typeWE" route="left" depart="759" />
    <vehicle id="right_142" type="typeWE" route="right" depart="763" />
    <vehicle id="left_143" type="typeWE" route="left" depart="767" />
    <vehicle id="up_144" type="typeNS" route="up" depart="768" color="1,0,0"/>
    <vehicle id="right_145" type="typeWE" route="right" depart="775" />
    <vehicle id="up_146" type="typeNS" route="up" depart="775" color="1,0,0"/>
    <vehicle id="down_147" type="typeNS" route="down" depart="777" color="1,0,0"/>
    <vehicle id="down_148" type="typeNS" route="down" depart="784" color="1,0,0"/>
    <vehicle id="left_149" type="typeWE" route="left" depart="792" />
    <vehicle id="up_150" type="typeNS" route="up" depart="799" color="1,0,0"/>
    <vehicle id="left_151" type="typeWE" route="left" depart="802" />
    <vehicle id="up_152" type="typeNS" route="up" depart="803" color="1,0,0"/>
    <vehicle id="up_153" type="typeNS" route="up" depart="806" color="1,0,0"/>
    <vehicle id="up_154" type="typeNS" route="up" depart="815" color="1,0,0"/>
    <vehicle id="left_155" type="typeWE" route="left" depart="820" />
    <vehicle id="right_156" type="typeWE" route="right" depart="822" />
    <vehicle id="left_157" type="typeWE" route="left" depart="822" />
    <vehicle id="left_158" type="typeWE" route="left" depart="825" />
    <vehicle id="left_159" type="typeWE" route="left" depart="831" />
    <vehicle id="down_160" type="typeNS" route="down" depart="835" color="1,0,0"/>
    <vehicle id="right_161" type="typeWE" route="right" depart="840" />
    <vehicle id="down_162" type="typeNS" route="down" depart="849" color="1,0,0"/>
    <vehicle id="up_163" type="typeNS" route="up" depart="851" color="1,0,0"/>
    <vehicle id="right_164" type="typeWE" route="right" depart="855" />
    <vehicle id="up_165" type="typeNS" route="up" depart="858" color="1,0,0"/>
    <vehicle id="right_166" type="typeWE" route="right" depart="873" />
    <vehicle id="down_167" type="typeNS" route="down" depart="876" color="1,0,0"/>
    <vehicle id="down_168" type="typeNS" route="down" depart="878" color="1,0,0"/>
    <vehicle id="right_169" type="typeWE" route="right" depart="879" />
    <vehicle id="right_170" type="typeWE" route="right" depart="894" />
    <vehicle id="up_171" type="typeNS" route="up" depart="898" color="1,0,0"/>
    <vehicle id="left_172" type="typeWE" route="left" depart="910" />
    <vehicle id="left_173" type="typeWE" route="left" depart="916" />
    <vehicle id="left_174" type="typeWE" route="left" depart="923" />
    <vehicle id="down_175" type="typeNS" route="down" depart="925" color="1,0,0"/>
    <vehicle id="up_176" type="typeNS" route="up" depart="929" color="1,0,0"/>
    <vehicle id="right_177" type="typeWE" route="right" depart="937" />
    <vehicle id="up_178" type="typeNS" route="up" depart="941" color="1,0,0"/>
    <vehicle id="down_179" type="typeNS" route="down" depart="945" color="1,0,0"/>
    <vehicle id="down_180" type="typeNS" route="down" depart="946" color="1,0,0"/>
    <vehicle id="down_181" type="typeNS" route="down" depart="958" color="1,0,0"/>
    <vehicle id="down_182" type="typeNS" route="down" depart="959" color="1,0,0"/>
    <vehicle id="right_183" type="typeWE" route="right" depart="966" />
    <vehicle id="right_184" type="typeWE" route="right" depart="972" />
    <vehicle id="left_185" type="typeWE" route="left" depart="978" />
    <vehicle id="up_186" type="typeNS" route="up" depart="983" color="1,0,0"/>
    <vehicle id="up_187" type="typeNS" route="up" depart="991" color="1,0,0"/>
    <vehicle id="left_188" type="typeWE" route="left" depart="996" />
    <vehicle id="left_189" type="typeWE" route="left" depart="997" />
    <vehicle id="left_190" type="typeWE" route="left" depart="1000" />
    <vehicle id="up_191" type="typeNS" route="up" depart="1000" color="1,0,0"/>
    <vehicle id="up_192" type="typeNS" route="up" depart="1003" color="1,0,0"/>
    <vehicle id="right_193" type="typeWE" route="right" depart="1006" />
    <vehicle id="up_194" type="typeNS" route="up" depart="1015" color="1,0,0"/>
    <vehicle id="left_195" type="typeWE" route="left" depart="1016" />
    <vehicle id="down_196" type="typeNS" route="down" depart="1017" color="1,0,0"/>
    <vehicle id="right_197" type="typeWE" route="right" depart="1019" />
    <vehicle id="up_198" type="typeNS" route="up" depart="1036" color="1,0,0"/>
    <vehicle id="up_199" type="typeNS" route="up" depart="1041" color="1,0,0"/>
    <vehicle id="up_200" type="typeNS" route="up" depart="1042" color="1,0,0"/>
    <vehicle id="up_201" type="typeNS" route="up" depart="1046" color="1,0,0"/>
    <vehicle id="left_202" type="typeWE" route="left" depart="1050" />
    <vehicle id="left_203" type="typeWE" route="left" depart="1055" />
    <vehicle id="up_204" type="typeNS" route="up" depart="1064" color="1,0,0"/>
    <vehicle id="left_205" type="typeWE" route="left" depart="1074" />
    <vehicle id="right_206" type="typeWE" route="right" depart="1093" />
    <vehicle id="down_207" type="typeNS" route="down" depart="1097" color="1,0,0"/>
    <vehicle id="left_208" type="typeWE" route="left" depart="1105" />
    <vehicle id="up_209" type="typeNS" route="up" depart="1105" color="1,0,0"/>
    <vehicle id="left_210" type="typeWE" route="left" depart="1107" />
    <vehicle id="left_211" type="typeWE" route="left" depart="1113" />
    <vehicle id="right_212" type="typeWE" route="right" depart="1138" />
    <vehicle id="right_213" type="typeWE" route="right" depart="1140" />
    <vehicle id="left_214" type="typeWE" route="left" depart="1141" />
    <vehicle id="right_215" type="typeWE" route="right" depart="1157" />
    <vehicle id="right_216" type="typeWE" route="right" depart="1161" />
    <vehicle id="left_217" type="typeWE" route="left" depart="1165" />
    <vehicle id="right_218" type="typeWE" route="right" depart="1166" />
    <vehicle id="left_219" type="typeWE" route="left" depart="1173" />
    <vehicle id="right_220" type="typeWE" route="right" depart="1179" />
    <vehicle id="right_221" type="typeWE" route="right" depart="1195" />
    <vehicle id="right_222" type="typeWE" route="right" depart="1209" />
    <vehicle id="right_223" type="typeWE" route="right" depart="1218" />
    <vehicle id="up_224" type="typeNS" route="up" depart="1232" color="1,0,0"/>
    <vehicle id="down_225" type="typeNS" route="down" depart="1235" color="1,0,0"/>
    <vehicle id="left_226" type="typeWE" route="left" depart="1241" />
    <vehicle id="left_227" type="typeWE" route="left" depart="1243" />
    <vehicle id="left_228" type="typeWE" route="left" depart="1250" />
    <vehicle id="left_229" type="typeWE" route="left" depart="1251" />
    <vehicle id="up_230" type="typeNS" route="up" depart="1257" color="1,0,0"/>
    <vehicle id="left_231" type="typeWE" route="left" depart="1261" />
    <vehicle id="right_232" type="typeWE" route="right" depart="1263" />
    <vehicle id="up_233" type="typeNS" route="up" depart="1270" color="1,0,0"/>
    <vehicle id="left_234" type="typeWE" route="left" depart="1273" />
    <vehicle id="down_235" type="typeNS" route="down" depart="1289" color="1,0,0"/>
    <vehicle id="down_236" type="typeNS" route="down" depart="1292" color="1,0,0"/>
    <vehicle id="up_237" type="typeNS" route="up" depart="1292" color="1,0,0"/>
    <vehicle id="up_238" type="typeNS" route="up" depart="1296" color="1,0,0"/>
    <vehicle id="right_239" type="typeWE" route="right" depart="1298" />
    <vehicle id="right_240" type="typeWE" route="right" depart="1300" />
    <vehicle id="up_241" type="typeNS" route="up" depart="1301" color="1,0,0"/>
    <vehicle id="right_242" type="typeWE" route="right" depart="1311" />
    <vehicle id="down_243" type="typeNS" route="down" depart="1326" color="1,0,0"/>
    <vehicle id="left_244" type="typeWE" route="left" depart="1331" />
    <vehicle id="right_245" type="typeWE" route="right" depart="1332" />
    <vehicle id="down_246" type="typeNS" route="down" depart="1341" color="1,0,0"/>
    <vehicle id="up_247" type="typeNS" route="up" depart="1343" color="1,0,0"/>
    <vehicle id="right_248" type="typeWE" route="right" depart="1348" />
    <vehicle id="left_249" type="typeWE" route="left" depart="1348" />
    <vehicle id="up_250" type="typeNS" route="up" depart="1353" color="1,0,0"/>
    <vehicle id="down_251" type="typeNS" route="down" depart="1357" color="1,0,0"/>
    <vehicle id="up_252" type="typeNS" route="up" depart="1368" color="1,0,0"/>
    <vehicle id="down_253" type="typeNS" route="down" depart="1373" color="1,0,0"/>
    <vehicle id="down_254" type="typeNS" route="down" depart="1374" color="1,0,0"/>
    <vehicle id="right_255" type="typeWE" route="right" depart="1375" />
    <vehicle id="down_256" type="typeNS" route="down" depart="1381" color="1,0,0"/>
    <vehicle id="down_257" type="typeNS" route="down" depart="1388" color="1,0,0"/>
    <vehicle id="down_258" type="typeNS" route="down" depart="1392" color="1,0,0"/>
    <vehicle id="up_259" type="typeNS" route="up" depart="1392" color="1,0,0"/>
    <vehicle id="right_260" type="typeWE" route="right" depart="1397" />
    <vehicle id="right_261" type="typeWE" route="right" depart="1412" />
    <vehicle id="down_262" type="typeNS" route="down" depart="1416" color="1,0,0"/>
    <vehicle id="right_263" type="typeWE" route="right" depart="1417" />
    <vehicle id="left_264" type="typeWE" route="left" depart="1420" />
    <vehicle id="down_265" type="typeNS" route="down" depart="1422" color="1,0,0"/>
    <vehicle id="right_266" type="typeWE" route="right" depart="1424" />
    <vehicle id="up_267" type="typeNS" route="up" depart="1429" color="1,0,0"/>
    <vehicle id="right_268" type="typeWE" route="right" depart="1434" />
    <vehicle id="left_269" type="typeWE" route="left" depart="1434" />
    <vehicle id="down_270" type="typeNS" route="down" depart="1436" color="1,0,0"/>
    <vehicle id="left_271" type="typeWE" route="left" depart="1439" />
    <vehicle id="up_272" type="typeNS" route="up" depart="1442" color="1,0,0"/>
    <vehicle id="up_273" type="typeNS" route="up" depart="1445" color="1,0,0"/>
    <vehicle id="down_274" type="typeNS" route="down" depart="1450" color="1,0,0"/>
    <vehicle id="up_275" type="typeNS" route="up" depart="1451" color="1,0,0"/>
    <vehicle id="down_276" type="typeNS" route="down" depart="1455" color="1,0,0"/>
    <vehicle id="right_277" type="typeWE" route="right" depart="1460" />
    <vehicle id="right_278" type="typeWE" route="right" depart="1479" />
    <vehicle id="right_279" type="typeWE" route="right" depart="1483" />
    <vehicle id="down_280" type="typeNS" route="down" depart="1498" color="1,0,0"/>
    <vehicle id="right_281" type="typeWE" route="right" depart="1506" />
    <vehicle id="right_282" type="typeWE" route="right" depart="1508" />
    <vehicle id="right_283" type="typeWE" route="right" depart="1516" />
    <vehicle id="right_284" type="typeWE" route="right" depart="1524" />
    <vehicle id="right_285" type="typeWE" route="right" depart="1559" />
    <vehicle id="right_286" type="typeWE" route="right" depart="1561" />
    <vehicle id="up_287" type="typeNS" route="up" depart="1571" color="1,0,0"/>
    <vehicle id="up_288" type="typeNS" route="up" depart="1581" color="1,0,0"/>
    <vehicle id="up_289" type="typeNS" route="up" depart="1585" color="1,0,0"/>
    <vehicle id="down_290" type="typeNS" route="down" depart="1587" color="1,0,0"/>
    <vehicle id="right_291" type="typeWE" route="right" depart="1601" />
    <vehicle id="down_292" type="typeNS" route="down" depart="1602" color="1,0,0"/>
    <vehicle id="down_293" type="typeNS" route="down" depart="1608" color="1,0,0"/>
    <vehicle id="up_294" type="typeNS" route="up" depart="1616" color="1,0,0"/>
    <vehicle id="down_295" type="typeNS" route="down" depart="1623" color="1,0,0"/>
    <vehicle id="up_296" type="typeNS" route="up" depart="1627" color="1,0,0"/>
    <vehicle id="up_297" type="typeNS" route="up" depart="1630" color="1,0,0"/>
    <vehicle id="up_298" type="typeNS" route="up" depart="1638" color="1,0,0"/>
    <vehicle id="left_299" type="typeWE" route="left" depart="1641" />
    <vehicle id="up_300" type="typeNS" route="up" depart="1645" color="1,0,0"/>
    <vehicle id="right_301" type="typeWE" route="right" depart="1666" />
    <vehicle id="up_302" type="typeNS" route="up" depart="1668" color="1,0,0"/>
    <vehicle id="up_303" type="typeNS" route="up" depart="1672" color="1,0,0"/>
    <vehicle id="up_304" type="typeNS" route="up" depart="1675" color="1,0,0"/>
    <vehicle id="left_305" type="typeWE" route="left" depart="1682" />
    <vehicle id="up_306" type="typeNS" route="up" depart="1685" color="1,0,0"/>
    <vehicle id="left_307" type="typeWE" route="left" depart="1695" />
    <vehicle id="up_308" type="typeNS" route="up" depart="1698" color="1,0,0"/>
    <vehicle id="down_309" type="typeNS" route="down" depart="1699" color="1,0,0"/>
    <vehicle id="down_310" type="typeNS" route="down" depart="1705" color="1,0,0"/>
    <vehicle id="up_311" type="typeNS" route="up" depart="1714" color="1,0,0"/>
    <vehicle id="right_312" type="typeWE" route="right" depart="1715" />
    <vehicle id="right_313" type="typeWE" route="right" depart="1718" />
    <vehicle id="left_314" type="typeWE" route="left" depart="1718" />
    <vehicle id="up_315" type="typeNS" route="up" depart="1719" color="1,0,0"/>
    <vehicle id="up_316" type="typeNS" route="up" depart="1723" color="1,0,0"/>
    <vehicle id="right_317" type="typeWE" route="right" depart="1724" />
    <vehicle id="up_318" type="typeNS" route="up" depart="1732" color="1,0,0"/>
    <vehicle id="right_319" type="typeWE" route="right" depart="1735" />
    <vehicle id="down_320" type="typeNS" route="down" depart="1737" color="1,0,0"/>
    <vehicle id="up_321" type="typeNS" route="up" depart="1739" color="1,0,0"/>
    <vehicle id="left_322" type="typeWE" route="left" depart="1750" />
    <vehicle id="left_323" type="typeWE" route="left" depart="1752" />
    <vehicle id="down_324" type="typeNS" route="down" depart="1752" color="1,0,0"/>
    <vehicle id="down_325" type="typeNS" route="down" depart="1753" color="1,0,0"/>
    <vehicle id="up_326" type="typeNS" route="up" depart="1754" color="1,0,0"/>
    <vehicle id="left_327" type="typeWE" route="left" depart="1760" />
    <vehicle id="left_328" type="typeWE" route="left" depart="1767" />
    <vehicle id="down_329" type="typeNS" route="down" depart="1768" color="1,0,0"/>
    <vehicle id="right_330" type="typeWE" route="right" depart="1775" />
    <vehicle id="left_331" type="typeWE" route="left" depart="1784" />
    <vehicle id="up_332" type="typeNS" route="up" depart="1786" color="1,0,0"/>
    <vehicle id="down_333" type="typeNS" route="down" depart="1787" color="1,0,0"/>
    <vehicle id="right_334" type="typeWE" route="right" depart="1789" />
    <vehicle id="left_335" type="typeWE" route="left" depart="1795" />
    <vehicle id="left_336" type="typeWE" route="left" depart="1796" />
    <vehicle id="left_337" type="typeWE" route="left" depart="1799" />
    <vehicle id="up_338" type="typeNS" route="up" depart="1799" color="1,0,0"/>
    <vehicle id="up_339" type="typeNS" route="up" depart="1804" color="1,0,0"/>
    <vehicle id="left_340" type="typeWE" route="left" depart="1811" />
    <vehicle id="right_341" type="typeWE" route="right" depart="1813" />
    <vehicle id="left_342" type="typeWE" route="left" depart="1813" />
    <vehicle id="down_343" type="typeNS" route="down" depart="1827" color="1,0,0"/>
    <vehicle id="down_344" type="typeNS" route="down" depart="1834" color="1,0,0"/>
    <vehicle id="right_345" type="typeWE" route="right" depart="1836" />
    <vehicle id="left_346" type="typeWE" route="left" depart="1838" />
    <vehicle id="up_347" type="typeNS" route="up" depart="1841" color="1,0,0"/>
    <vehicle id="right_348" type="typeWE" route="right" depart="1842" />
    <vehicle id="right_349" type="typeWE" route="right" depart="1850" />
    <vehicle id="left_350" type="typeWE" route="left" depart="1853" />
    <vehicle id="right_351" type="typeWE" route="right" depart="1867" />
    <vehicle id="up_352" type="typeNS" route="up" depart="1879" color="1,0,0"/>
    <vehicle id="down_353" type="typeNS" route="down" depart="1881" color="1,0,0"/>
    <vehicle id="left_354" type="typeWE" route="left" depart="1889" />
    <vehicle id="up_355" type="typeNS" route="up" depart="1890" color="1,0,0"/>
    <vehicle id="down_356" type="typeNS" route="down" depart="1897" color="1,0,0"/>
    <vehicle id="right_357" type="typeWE" route="right" depart="1899" />
    <vehicle id="up_358" type="typeNS" route="up" depart="1907" color="1,0,0"/>
    <vehicle id="down_359" type="typeNS" route="down" depart="1908" color="1,0,0"/>
    <vehicle id="down_360" type="typeNS" route="down" depart="1916" color="1,0,0"/>
    <vehicle id="up_361" type="typeNS" route="up" depart="1918" color="1,0,0"/>
    <vehicle id="right_362" type="typeWE" route="right" depart="1919" />
    <vehicle id="down_363" type="typeNS" route="down" depart="1920" color="1,0,0"/>
    <vehicle id="right_364" type="typeWE" route="right" depart="1931" />
    <vehicle id="up_365" type="typeNS" route="up" depart="1933" color="1,0,0"/>
    <vehicle id="right_366" type="typeWE" route="right" depart="1937" />
    <vehicle id="left_367" type="typeWE" route="left" depart="1947" />
    <vehicle id="right_368" type="typeWE" route="right" depart="1956" />
    <vehicle id="down_369" type="typeNS" route="down" depart="1964" color="1,0,0"/>
    <vehicle id="down_370" type="typeNS" route="down" depart="1975" color="1,0,0"/>
    <vehicle id="right_371" type="typeWE" route="right" depart="1994" />
    <vehicle id="right_372" type="typeWE" route="right" depart="2003" />
    <vehicle id="down_373" type="typeNS" route="down" depart="2004" color="1,0,0"/>
    <vehicle id="left_374" type="typeWE" route="left" depart="2005" />
    <vehicle id="right_375" type="typeWE" route="right" depart="2010" />
    <vehicle id="down_376" type="typeNS" route="down" depart="2011" color="1,0,0"/>
    <vehicle id="left_377" type="typeWE" route="left" depart="2013" />
    <vehicle id="left_378" type="typeWE" route="left" depart="2026" />
    <vehicle id="left_379" type="typeWE" route="left" depart="2029" />
    <vehicle id="down_380" type="typeNS" route="down" depart="2037" color="1,0,0"/>
    <vehicle id="left_381" type="typeWE" route="left" depart="2040" />
    <vehicle id="up_382" type="typeNS" route="up" depart="2047" color="1,0,0"/>
    <vehicle id="right_383" type="typeWE" route="right" depart="2051" />
    <vehicle id="up_384" type="typeNS" route="up" depart="2055" color="1,0,0"/>
    <vehicle id="down_385" type="typeNS" route="down" depart="2065" color="1,0,0"/>