<routes>
            <vType id="typeWE" accel="0.8" decel="4.5" sigma="0.5" length="5" minGap="2.5" maxSpeed="16.67" guiShape="passenger"/>
            <vType id="typeNS" accel="0.8" decel="4.5" sigma="0.5" length="7" minGap="3" maxSpeed="25" guiShape="bus"/>
            <route id="right" edges="51o 1i 2o 52i" />
            <route id="left" edges="52o 2i 1o 51i" />
            <route id="down" edges="54o 4i 3o 53i" />
    <vehicle id="right_0" type="typeWE" route="right" depart="0" />
    <vehicle id="left_1" type="typeWE" route="left" depart="2" />
    <vehicle id="left_2" type="typeWE" route="left" depart="5" />
    <vehicle id="right_3" type="typeWE" route="right" depart="7" />
    <vehicle id="left_4" type="typeWE" route="left" depart="7" />
    <vehicle id="left_5" type="typeWE" route="left" depart="9" />
    <vehicle id="right_6" type="typeWE" route="right" depart="10" />
    <vehicle id="left_7" type="typeWE" route="left" depart="11" />
    <vehicle id="left_8" type="typeWE" route="left" depart="12" />
    <vehicle id="right_9" type="typeWE" route="right" depart="14" />
    <vehicle id="left_10" type="typeWE" route="left" depart="14" />
    <vehicle id="left_11" type="typeWE" route="left" depart="15" />
    <vehicle id="right_12" type="typeWE" route="right" depart="16" />
    <vehicle id="left_13" type="typeWE" route="left" depart="16" />
    <vehicle id="right_14" type="typeWE" route="right" depart="18" />
    <vehicle id="left_15" type="typeWE" route="left" depart="18" />
    <vehicle id="right_16" type="typeWE" route="right" depart="19" />
    <vehicle id="right_17" type="typeWE" route="right" depart="20" />
    <vehicle id="left_18" type="typeWE" route="left" depart="20" />
    <vehicle id="right_19" type="typeWE" route="right" depart="22" />
    <vehicle id="right_20" type="typeWE" route="right" depart="23" />
    <vehicle id="right_21" type="typeWE" route="right" depart="24" />
    <vehicle id="left_22" type="typeWE" route="left" depart="24" />
    <vehicle id="right_23" type="typeWE" route="right" depart="25" />
    <vehicle id="right_24" type="typeWE" route="right" depart="26" />
    <vehicle id="right_25" type="typeWE" route="right" depart="27" />
    <vehicle id="left_26" type="typeWE" route="left" depart="27" />
    <vehicle id="right_27" type="typeWE" route="right" depart="28" />
    <vehicle id="left_28" type="typeWE" route="left" depart="28" />
    <vehicle id="left_29" type="typeWE" route="left" depart="29" />
    <vehicle id="right_30" type="typeWE" route="right" depart="30" />
    <vehicle id="right_31" type="typeWE" route="right" depart="31" />
    <vehicle id="right_32" type="typeWE" route="right" depart="33" />
    <vehicle id="left_33" type="typeWE" route="left" depart="33" />
    <vehicle id="right_34" type="typeWE" route="right" depart="34" />
    <vehicle id="left_35" type="typeWE" route="left" depart="34" />
    <vehicle id="left_36" type="typeWE" route="left" depart="35" />
    <vehicle id="right_37" type="typeWE" route="right" depart="36" />
    <vehicle id="left_38" type="typeWE" route="left" depart="36" />
    <vehicle id="right_39" type="typeWE" route="right" depart="37" />
    <vehicle id="left_40" type="typeWE" route="left" depart="37" />
    <vehicle id="right_41" type="typeWE" route="right" depart="38" />
    <vehicle id="left_42" type="typeWE" route="left" depart="38" />
    <vehicle id="right_43" type="typeWE" route="right" depart="41" />
    <vehicle id="left_44" type="typeWE" route="left" depart="42" />
    <vehicle id="right_45" type="typeWE" route="right" depart="43" />
    <vehicle id="right_46" type="typeWE" route="right" depart="44" />
    <vehicle id="left_47" type="typeWE" route="left" depart="44" />
    <vehicle id="right_48" type="typeWE" route="right" depart="45" />
    <vehicle id="left_49" type="typeWE" route="left" depart="45" />
    <vehicle id="left_50" type="typeWE" route="left" depart="46" />
    <vehicle id="right_51" type="typeWE" route="right" depart="47" />
    <vehicle id="left_52" type="typeWE" route="left" depart="47" />
    <vehicle id="left_53" type="typeWE" route="left" depart="48" />
    <vehicle id="right_54" type="typeWE" route="right" depart="49" />
    <vehicle id="right_55" type="typeWE" route="right" depart="50" />
    <vehicle id="left_56" type="typeWE" route="left" depart="50" />
    <vehicle id="right_57" type="typeWE" route="right" depart="52" />
    <vehicle id="left_58" type="typeWE" route="left" depart="52" />
    <vehicle id="right_59" type="typeWE" route="right" depart="53" />
    <vehicle id="left_60" type="typeWE" route="left" depart="53" />
    <vehicle id="right_61" type="typeWE" route="right" depart="54" />
    <vehicle id="left_62" type="typeWE" route="left" depart="54" />
    <vehicle id="right_63" type="typeWE" route="right" depart="55" />
    <vehicle id="right_64" type="typeWE" route="right" depart="56" />
    <vehicle id="left_65" type="typeWE" route="left" depart="56" />
    <vehicle id="right_66" type="typeWE" route="right" depart="59" />
    <vehicle id="right_67" type="typeWE" route="right" depart="60" />
    <vehicle id="right_68" type="typeWE" route="right" depart="61" />
    <vehicle id="right_69" type="typeWE" route="right" depart="62" />
    <vehicle id="left_70" type="typeWE" route="left" depart="62" />
    <vehicle id="left_71" type="typeWE" route="left" depart="63" />
    <vehicle id="right_72" type="typeWE" route="right" depart="65" />
    <vehicle id="left_73" type="typeWE" route="left" depart="65" />
    <vehicle id="right_74" type="typeWE" route="right" depart="66" />
    <vehicle id="right_75" type="typeWE" route="right" depart="67" />
    <vehicle id="left_76" type="typeWE" route="left" depart="67" />
    <vehicle id="right_77" type="typeWE" route="right" depart="70" />
    <vehicle id="left_78" type="typeWE" route="left" depart="71" />
    <vehicle id="right_79" type="typeWE" route="right" depart="72" />
    <vehicle id="left_80" type="typeWE" route="left" depart="72" />
    <vehicle id="right_81" type="typeWE" route="right" depart="73" />
    <vehicle id="left_82" type="typeWE" route="left" depart="73" />
    <vehicle id="right_83" type="typeWE" route="right" depart="75" />
    <vehicle id="left_84" type="typeWE" route="left" depart="75" />
    <vehicle id="right_85" type="typeWE" route="right" depart="76" />
    <vehicle id="right_86" type="typeWE" route="right" depart="77" />
    <vehicle id="left_87" type="typeWE" route="left" depart="77" />
    <vehicle id="right_88" type="typeWE" route="right" depart="78" />
    <vehicle id="right_89" type="typeWE" route="right" depart="79" />
    <vehicle id="left_90" type="typeWE" route="left" depart="79" />
    <vehicle id="right_91" type="typeWE" route="right" depart="81" />
    <vehicle id="right_92" type="typeWE" route="right" depart="82" />
    <vehicle id="left_93" type="typeWE" route="left" depart="83" />
    <vehicle id="right_94" type="typeWE" route="right" depart="84" />
    <vehicle id="left_95" type="typeWE" route="left" depart="84" />
    <vehicle id="left_96" type="typeWE" route="left" depart="85" />
    <vehicle id="right_97" type="typeWE" route="right" depart="86" />
    <vehicle id="left_98" type="typeWE" route="left" depart="87" />
    <vehicle id="right_99" type="typeWE" route="right" depart="88" />
    <vehicle id="left_100" type="typeWE" route="left" depart="88" />
    <vehicle id="right_101" type="typeWE" route="right" depart="89" />
    <vehicle id="left_102" type="typeWE" route="left" depart="89" />
    <vehicle id="right_103" type="typeWE" route="right" depart="90" />
    <vehicle id="left_104" type="typeWE" route="left" depart="91" />
    <vehicle id="right_105" type="typeWE" route="right" depart="92" />
    <vehicle id="left_106" type="typeWE" route="left" depart="92" />
    <vehicle id="right_107" type="typeWE" route="right" depart="93" />
    <vehicle id="left_108" type="typeWE" route="left" depart="93" />
    <vehicle id="right_109" type="typeWE" route="right" depart="94" />
    <vehicle id="right_110" type="typeWE" route="right" depart="95" />
    <vehicle id="left_111" type="typeWE" route="left" depart="95" />
    <vehicle id="left_112" type="typeWE" route="left" depart="96" />
    <vehicle id="right_113" type="typeWE" route="right" depart="97" />
    <vehicle id="right_114" type="typeWE" route="right" depart="98" />
    <vehicle id="right_115" type="typeWE" route="right" depart="99" />
    <vehicle id="right_116" type="typeWE" route="right" depart="101" />
    <vehicle id="left_117" type="typeWE" route="left" depart="102" />
    <vehicle id="right_118" type="typeWE" route="right" depart="103" />
    <vehicle id="left_119" type="typeWE" route="left" depart="103" />
    <vehicle id="right_120" type="typeWE" route="right" depart="104" />
    <vehicle id="left_121" type="typeWE" route="left" depart="104" />
    <vehicle id="right_122" type="typeWE" route="right" depart="105" />
    <vehicle id="left_123" type="typeWE" route="left" depart="105" />
    <vehicle id="left_124" type="typeWE" route="left" depart="106" />
    <vehicle id="right_125" type="typeWE" route="right" depart="107" />
    <vehicle id="right_126" type="typeWE" route="right" depart="109" />
    <vehicle id="left_127" type="typeWE" route="left" depart="109" />
    <vehicle id="right_128" type="typeWE" route="right" depart="110" />
    <vehicle id="left_129" type="typeWE" route="left" depart="110" />
    <vehicle id="right_130" type="typeWE" route="right" depart="113" />
    <vehicle id="left_131" type="typeWE" route="left" depart="113" />
    <vehicle id="right_132" type="typeWE" route="right" depart="114" />
    <vehicle id="right_133" type="typeWE" route="right" depart="115" />
    <vehicle id="left_134" type="typeWE" route="left" depart="115" />
    <vehicle id="right_135" type="typeWE" route="right" depart="116" />
    <vehicle id="left_136" type="typeWE" route="left" depart="117" />
    <vehicle id="right_137" type="typeWE" route="right" depart="118" />
    <vehicle id="right_138" type="typeWE" route="right" depart="119" />
    <vehicle id="right_139" type="typeWE" route="right" depart="120" />
    <vehicle id="left_140" type="typeWE" route="left" depart="120" />
    <vehicle id="left_141" type="typeWE" route="left" depart="121" />
    <vehicle id="right_142" type="typeWE" route="right" depart="123" />
    <vehicle id="left_143" type="typeWE" route="left" depart="123" />
    <vehicle id="right_144" type="typeWE" route="right" depart="124" />
    <vehicle id="left_145" type="typeWE" route="left" depart="124" />
    <vehicle id="left_146" type="typeWE" route="left" depart="125" />
    <vehicle id="left_147" type="typeWE" route="left" depart="128" />
    <vehicle id="right_148" type="typeWE" route="right" depart="130" />
    <vehicle id="right_149" type="typeWE" route="right" depart="131" />
    <vehicle id="right_150" type="typeWE" route="right" depart="132" />
    <vehicle id="right_151" type="typeWE" route="right" depart="134" />
    <vehicle id="left_152" type="typeWE" route="left" depart="135" />
    <vehicle id="right_153" type="typeWE" route="right" depart="136" />
    <vehicle id="left_154" type="typeWE" route="left" depart="137" />
    <vehicle id="right_155" type="typeWE" route="right" depart="138" />
    <vehicle id="left_156" type="typeWE" route="left" depart="138" />
    <vehicle id="left_157" type="typeWE" route="left" depart="139" />
    <vehicle id="left_158" type="typeWE" route="left" depart="140" />
    <vehicle id="left_159" type="typeWE" route="left" depart="141" />
    <vehicle id="left_160" type="typeWE" route="left" depart="143" />
    <vehicle id="right_161" type="typeWE" route="right" depart="144" />
    <vehicle id="left_162" type="typeWE" route="left" depart="144" />
    <vehicle id="left_163" type="typeWE" route="left" depart="146" />
    <vehicle id="left_164" type="typeWE" route="left" depart="148" />
    <vehicle id="right_165" type="typeWE" route="right" depart="149" />
    <vehicle id="left_166" type="typeWE" route="left" depart="151" />
    <vehicle id="right_167" type="typeWE" route="right" depart="152" />
    <vehicle id="right_168" type="typeWE" route="right" depart="154" />
    <vehicle id="right_169" type="typeWE" route="right" depart="155" />
    <vehicle id="left_170" type="typeWE" route="left" depart="155" />
    <vehicle id="right_171" type="typeWE" route="right" depart="156" />
    <vehicle id="left_172" type="typeWE" route="left" depart="156" />
    <vehicle id="right_173" type="typeWE" route="right" depart="157" />
    <vehicle id="right_174" type="typeWE" route="right" depart="158" />
    <vehicle id="left_175" type="typeWE" route="left" depart="158" />
    <vehicle id="right_176" type="typeWE" route="right" depart="159" />
    <vehicle id="left_177" type="typeWE" route="left" depart="159" />
    <vehicle id="right_178" type="typeWE" route="right" depart="160" />
    <vehicle id="right_179" type="typeWE" route="right" depart="161" />
    <vehicle id="left_180" type="typeWE" route="left" depart="161" />
    <vehicle id="left_181" type="typeWE" route="left" depart="163" />
    <vehicle id="right_182" type="typeWE" route="right" depart="164" />
    <vehicle id="right_183" type="typeWE" route="right" depart="165" />
    <vehicle id="left_184" type="typeWE" route="left" depart="165" />
    <vehicle id="right_185" type="typeWE" route="right" depart="167" />
    <vehicle id="right_186" type="typeWE" route="right" depart="168" />
    <vehicle id="left_187" type="typeWE" route="left" depart="168" />
    <vehicle id="right_188" type="typeWE" route="right" depart="169" />
    <vehicle id="left_189" type="typeWE" route="left" depart="169" />
    <vehicle id="left_190" type="typeWE" route="left" depart="170" />
    <vehicle id="right_191" type="typeWE" route="right" depart="171" />
    <vehicle id="right_192" type="typeWE" route="right" depart="173" />
    <vehicle id="right_193" type="typeWE" route="right" depart="175" />
    <vehicle id="right_194" type="typeWE" route="right" depart="176" />
    <vehicle id="left_195" type="typeWE" route="left" depart="177" />
    <vehicle id="left_196" type="typeWE" route="left" depart="178" />
    <vehicle id="right_197" type="typeWE" route="right" depart="179" />
    <vehicle id="left_198" type="typeWE" route="left" depart="181" />
    <vehicle id="right_199" type="typeWE" route="right" depart="182" />
    <vehicle id="left_200" type="typeWE" route="left" depart="182" />
    <vehicle id="right_201" type="typeWE" route="right" depart="183" />
    <vehicle id="right_202" type="typeWE" route="right" depart="184" />
    <vehicle id="right_203" type="typeWE" route="right" depart="185" />
    <vehicle id="right_204" type="typeWE" route="right" depart="186" />
    <vehicle id="left_205" type="typeWE" route="left" depart="186" />
    <vehicle id="left_206" type="typeWE" route="left" depart="189" />
    <vehicle id="left_207" type="typeWE" route="left" depart="191" />
    <vehicle id="right_208" type="typeWE" route="right" depart="192" />
    <vehicle id="left_209" type="typeWE" route="left" depart="193" />
    <vehicle id="right_210" type="typeWE" route="right" depart="194" />
    <vehicle id="left_211" type="typeWE" route="left" depart="196" />
    <vehicle id="right_212" type="typeWE" route="right" depart="198" />
    <vehicle id="right_213" type="typeWE" route="right" depart="199" />
    <vehicle id="left_214" type="typeWE" route="left" depart="199" />
    <vehicle id="left_215" type="typeWE" route="left" depart="200" />
    <vehicle id="right_216" type="typeWE" route="right" depart="201" />
    <vehicle id="right_217" type="typeWE" route="right" depart="202" />
    <vehicle id="right_218" type="typeWE" route="right" depart="203" />
    <vehicle id="left_219" type="typeWE" route="left" depart="205" />
    <vehicle id="right_220" type="typeWE" route="right" depart="206" />
    <vehicle id="right_221" type="typeWE" route="right" depart="208" />
    <vehicle id="left_222" type="typeWE" route="left" depart="208" />
    <vehicle id="right_223" type="typeWE" route="right" depart="209" />
    <vehicle id="left_224" type="typeWE" route="left" depart="211" />
    <vehicle id="left_225" type="typeWE" route="left" depart="212" />
    <vehicle id="right_226" type="typeWE" route="right" depart="213" />
    <vehicle id="left_227" type="typeWE" route="left" depart="213" />
    <vehicle id="right_228" type="typeWE" route="right" depart="214" />
    <vehicle id="left_229" type="typeWE" route="left" depart="214" />
    <vehicle id="left_230" type="typeWE" route="left" depart="215" />
    <vehicle id="right_231" type="typeWE" route="right" depart="218" />
    <vehicle id="left_232" type="typeWE" route="left" depart="219" />
    <vehicle id="right_233" type="typeWE" route="right" depart="220" />
    <vehicle id="right_234" type="typeWE" route="right" depart="221" />
    <vehicle id="left_235" type="typeWE" route="left" depart="222" />
    <vehicle id="right_236" type="typeWE" route="right" depart="223" />
    <vehicle id="left_237" type="typeWE" route="left" depart="224" />
    <vehicle id="right_238" type="typeWE" route="right" depart="225" />
    <vehicle id="left_239" type="typeWE" route="left" depart="227" />
    <vehicle id="left_240" type="typeWE" route="left" depart="228" />
    <vehicle id="right_241" type="typeWE" route="right" depart="229" />
    <vehicle id="left_242" type="typeWE" route="left" depart="229" />
    <vehicle id="right_243" type="typeWE" route="right" depart="231" />
    <vehicle id="left_244" type="typeWE" route="left" depart="231" />
    <vehicle id="right_245" type="typeWE" route="right" depart="233" />
    <vehicle id="left_246" type="typeWE" route="left" depart="234" />
    <vehicle id="left_247" type="typeWE" route="left" depart="235" />
    <vehicle id="left_248" type="typeWE" route="left" depart="236" />
    <vehicle id="left_249" type="typeWE" route="left" depart="238" />
    <vehicle id="right_250" type="typeWE" route="right" depart="239" />
    <vehicle id="left_251" type="typeWE" route="left" depart="239" />
    <vehicle id="left_252" type="typeWE" route="left" depart="240" />
    <vehicle id="left_253" type="typeWE" route="left" depart="242" />
    <vehicle id="right_254" type="typeWE" route="right" depart="243" />
    <vehicle id="left_255" type="typeWE" route="left" depart="243" />
    <vehicle id="right_256" type="typeWE" route="right" depart="244" />
    <vehicle id="left_257" type="typeWE" route="left" depart="244" />
    <vehicle id="left_258" type="typeWE" route="left" depart="245" />
    <vehicle id="right_259" type="typeWE" route="right" depart="246" />
    <vehicle id="right_260" type="typeWE" route="right" depart="247" />
    <vehicle id="right_261" type="typeWE" route="right" depart="248" />
    <vehicle id="left_262" type="typeWE" route="left" depart="248" />
    <vehicle id="left_263" type="typeWE" route="left" depart="249" />
    <vehicle id="left_264" type="typeWE" route="left" depart="252" />
    <vehicle id="left_265" type="typeWE" route="left" depart="253" />
    <vehicle id="right_266" type="typeWE" route="right" depart="254" />
    <vehicle id="left_267" type="typeWE" route="left" depart="255" />
    <vehicle id="left_268" type="typeWE" route="left" depart="256" />
    <vehicle id="left_269" type="typeWE" route="left" depart="257" />
    <vehicle id="right_270" type="typeWE" route="right" depart="259" />
    <vehicle id="left_271" type="typeWE" route="left" depart="259" />
    <vehicle id="right_272" type="typeWE" route="right" depart="260" />
    <vehicle id="right_273" type="typeWE" route="right" depart="261" />
    <vehicle id="left_274" type="typeWE" route="left" depart="261" />
    <vehicle id="right_275" type="typeWE" route="right" depart="262" />
    <vehicle id="right_276" type="typeWE" route="right" depart="263" />
    <vehicle id="left_277" type="typeWE" route="left" depart="263" />
    <vehicle id="right_278" type="typeWE" route="right" depart="264" />
    <vehicle id="left_279" type="typeWE" route="left" depart="265" />
    <vehicle id="right_280" type="typeWE" route="right" depart="266" />
    <vehicle id="left_281" type="typeWE" route="left" depart="266" />
    <vehicle id="left_282" type="typeWE" route="left" depart="268" />
    <vehicle id="right_283" type="typeWE" route="right" depart="269" />
    <vehicle id="right_284" type="typeWE" route="right" depart="270" />
    <vehicle id="left_285" type="typeWE" route="left" depart="270" />
    <vehicle id="right_286" type="typeWE" route="right" depart="271" />
    <vehicle id="right_287" type="typeWE" route="right" depart="272" />
    <vehicle id="left_288" type="typeWE" route="left" depart="272" />
    <vehicle id="right_289" type="typeWE" route="right" depart="274" />
    <vehicle id="left_290" type="typeWE" route="left" depart="274" />
    <vehicle id="right_291" type="typeWE" route="right" depart="275" />
    <vehicle id="left_292" type="typeWE" route="left" depart="276" />
    <vehicle id="left_293" type="typeWE" route="left" depart="279" />
    <vehicle id="right_294" type="typeWE" route="right" depart="280" />
    <vehicle id="right_295" type="typeWE" route="right" depart="281" />
    <vehicle id="left_296" type="typeWE" route="left" depart="281" />
    <vehicle id="left_297" type="typeWE" route="left" depart="282" />
    <vehicle id="left_298" type="typeWE" route="left" depart="283" />
    <vehicle id="left_299" type="typeWE" route="left" depart="284" />
    <vehicle id="left_300" type="typeWE" route="left" depart="285" />
    <vehicle id="left_301" type="typeWE" route="left" depart="288" />
    <vehicle id="right_302" type="typeWE" route="right" depart="290" />
    <vehicle id="left_303" type="typeWE" route="left" depart="290" />
    <vehicle id="right_304" type="typeWE" route="right" depart="291" />
    <vehicle id="right_305" type="typeWE" route="right" depart="292" />
    <vehicle id="left_306" type="typeWE" route="left" depart="293" />
    <vehicle id="right_307" type="typeWE" route="right" depart="294" />
    <vehicle id="left_308" type="typeWE" route="left" depart="294" />
    <vehicle id="right_309" type="typeWE" route="right" depart="295" />
    <vehicle id="right_310" type="typeWE" route="right" depart="297" />
    <vehicle id="left_311" type="typeWE" route="left" depart="298" />
    <vehicle id="left_312" type="typeWE" route="left" depart="299" />
    <vehicle id="right_313" type="typeWE" route="right" depart="300" />
    <vehicle id="right_314" type="typeWE" route="right" depart="301" />
    <vehicle id="left_315" type="typeWE" route="left" depart="303" />
    <vehicle id="left_316" type="typeWE" route="left" depart="304" />
    <vehicle id="right_317" type="typeWE" route="right" depart="306" />
    <vehicle id="left_318" type="typeWE" route="left" depart="306" />
    <vehicle id="right_319" type="typeWE" route="right" depart="310" />
    <vehicle id="right_320" type="typeWE" route="right" depart="311" />
    <vehicle id="left_321" type="typeWE" route="left" depart="311" />
    <vehicle id="right_322" type="typeWE" route="right" depart="314" />
    <vehicle id="left_323" type="typeWE" route="left" depart="315" />
    <vehicle id="left_324" type="typeWE" route="left" depart="316" />
    <vehicle id="right_325" type="typeWE" route="right" depart="318" />
    <vehicle id="left_326" type="typeWE" route="left" depart="318" />
    <vehicle id="right_327" type="typeWE" route="right" depart="319" />
    <vehicle id="left_328" type="typeWE" route="left" depart="319" />
    <vehicle id="right_329" type="typeWE" route="right" depart="320" />
    <vehicle id="right_330" type="typeWE" route="right" depart="322" />
    <vehicle id="left_331" type="typeWE" route="left" depart="322" />
    <vehicle id="left_332" type="typeWE" route="left" depart="323" />
    <vehicle id="right_333" type="typeWE" route="right" depart="324" />
    <vehicle id="left_334" type="typeWE" route="left" depart="325" />
    <vehicle id="right_335" type="typeWE" route="right" depart="327" />
    <vehicle id="left_336" type="typeWE" route="left" depart="327" />
    <vehicle id="right_337" type="typeWE" route="right" depart="328" />
    <vehicle id="right_338" type="typeWE" route="right" depart="329" />
    <vehicle id="left_339" type="typeWE" route="left" depart="331" />
    <vehicle id="right_340" type="typeWE" route="right" depart="332" />
    <vehicle id="left_341" type="typeWE" route="left" depart="332" />
    <vehicle id="right_342" type="typeWE" route="right" depart="333" />
    <vehicle id="left_343" type="typeWE" route="left" depart="333" />
    <vehicle id="right_344" type="typeWE" route="right" depart="334" />
    <vehicle id="right_345" type="typeWE" route="right" depart="335" />
    <vehicle id="right_346" type="typeWE" route="right" depart="336" />
    <vehicle id="left_347" type="typeWE" route="left" depart="336" />
    <vehicle id="right_348" type="typeWE" route="right" depart="337" />
    <vehicle id="left_349" type="typeWE" route="left" depart="337" />
    <vehicle id="right_350" type="typeWE" route="right" depart="339" />
    <vehicle id="left_351" type="typeWE" route="left" depart="339" />
    <vehicle id="left_352" type="typeWE" route="left" depart="340" />
    <vehicle id="right_353" type="typeWE" route="right" depart="342" />
    <vehicle id="left_354" type="typeWE" route="left" depart="343" />
    <vehicle id="right_355" type="typeWE" route="right" depart="344" />
    <vehicle id="right_356" type="typeWE" route="right" depart="345" />
    <vehicle id="right_357" type="typeWE" route="right" depart="346" />
    <vehicle id="right_358" type="typeWE" route="right" depart="347" />
    <vehicle id="right_359" type="typeWE" route="right" depart="348" />
    <vehicle id="right_360" type="typeWE" route="right" depart="350" />
    <vehicle id="left_361" type="typeWE" route="left" depart="350" />
    <vehicle id="right_362" type="typeWE" route="right" depart="351" />
    <vehicle id="left_363" type="typeWE" route="left" depart="352" />
    <vehicle id="right_364" type="typeWE" route="right" depart="353" />
    <vehicle id="left_365" type="typeWE" route="left" depart="353" />
    <vehicle id="right_366" type="typeWE" route="right" depart="355" />
    <vehicle id="left_367" type="typeWE" route="left" depart="357" />
    <vehicle id="left_368" type="typeWE" route="left" depart="358" />
    <vehicle id="right_369" type="typeWE" route="right" depart="359" />
    <vehicle id="left_370" type="typeWE" route="left" depart="359" />
    <vehicle id="right_371" type="typeWE" route="right" depart="360" />
    <vehicle id="left_372" type="typeWE" route="left" depart="360" />
    <vehicle id="right_373" type="typeWE" route="right" depart="362" />
    <vehicle id="left_374" type="typeWE" route="left" depart="362" />
    <vehicle id="right_375" type="typeWE" route="right" depart="363" />
    <vehicle id="left_376" type="typeWE" route="left" depart="365" />
    <vehicle id="right_377" type="typeWE" route="right" depart="366" />
    <vehicle id="left_378" type="typeWE" route="left" depart="366" />
    <vehicle id="right_379" type="typeWE" route="right" depart="367" />
    <vehicle id="right_380" type="typeWE" route="right" depart="368" />
    <vehicle id="right_381" type="typeWE" route="right" depart="370" />
    <vehicle id="right_382" type="typeWE" route="right" depart="371" />
    <vehicle id="left_383" type="typeWE" route="left" depart="371" />
    <vehicle id="left_384" type="typeWE" route="left" depart="373" />
    <vehicle id="left_385" type="typeWE" route="left" depart="374" />
    <vehicle id="right_386" type="typeWE" route="right" depart="375" />
    <vehicle id="left_387" type="typeWE" route="left" depart="376" />
    <vehicle id="left_388" type="typeWE" route="left" depart="378" />
    <vehicle id="right_389" type="typeWE" route="right" depart="379" />
    <vehicle id="left_390" type="typeWE" route="left" depart="379" />
    <vehicle id="right_391" type="typeWE" route="right" depart="381" />
    <vehicle id="right_392" type="typeWE" route="right" depart="383" />
    <vehicle id="left_393" type="typeWE" route="left" depart="383" />
    <vehicle id="left_394" type="typeWE" route="left" depart="385" />
    <vehicle id="right_395" type="typeWE" route="right" depart="386" />
    <vehicle id="left_396" type="typeWE" route="left" depart="387" />
    <vehicle id="right_397" type="typeWE" route="right" depart="388" />
    <vehicle id="left_398" type="typeWE" route="left" depart="388" />
    <vehicle id="right_399" type="typeWE" route="right" depart="389" />
    <vehicle id="right_400" type="typeWE" route="right" depart="391" />
    <vehicle id="left_401" type="typeWE" route="left" depart="391" />
    <vehicle id="left_402" type="typeWE" route="left" depart="392" />
    <vehicle id="right_403" type="typeWE" route="right" depart="393" />
    <vehicle id="left_404" type="typeWE" route="left" depart="394" />
    <vehicle id="right_405" type="typeWE" route="right" depart="396" />
    <vehicle id="right_406" type="typeWE" route="right" depart="397" />
    <vehicle id="right_407" type="typeWE" route="right" depart="398" />
    <vehicle id="left_408" type="typeWE" route="left" depart="398" />
    <vehicle id="left_409" type="typeWE" route="left" depart="399" />
    <vehicle id="right_410" type="typeWE" route="right" depart="400" />
    <vehicle id="left_411" type="typeWE" route="left" depart="400" />
    <vehicle id="left_412" type="typeWE" route="left" depart="401" />
    <vehicle id="right_413" type="typeWE" route="right" depart="402" />
    <vehicle id="left_414" type="typeWE" route="left" depart="402" />
    <vehicle id="right_415" type="typeWE" route="right" depart="404" />
    <vehicle id="left_416" type="typeWE" route="left" depart="405" />
    <vehicle id="right_417" type="typeWE" route="right" depart="406" />
    <vehicle id="left_418" type="typeWE" route="left" depart="406" />