<routes>
            <vType id="typeWE" accel="0.8" decel="4.5" sigma="0.5" length="5" minGap="2.5" maxSpeed="16.67" guiShape="passenger"/>
            <vType id="typeNS" accel="0.8" decel="4.5" sigma="0.5" length="7" minGap="3" maxSpeed="25" guiShape="bus"/>
            <route id="right" edges="51o 1i 2o 52i" />
            <route id="left" edges="52o 2i 1o 51i" />
            <route id="up" edges="53o 3i 4o 54i" />
            <route id="down" edges="54o 4i 3o 53i" />
    <vehicle id="up_0" type="typeNS" route="up" depart="9" color="1,0,0"/>
    <vehicle id="right_1" type="typeWE" route="right" depart="13" />
    <vehicle id="up_2" type="typeNS" route="up" depart="15" color="1,0,0"/>
    <vehicle id="up_3" type="typeNS" route="up" depart="17" color="1,0,0"/>
    <vehicle id="right_4" type="typeWE" route="right" depart="21" />
    <vehicle id="left_5" type="typeWE" route="left" depart="21" />
    <vehicle id="down_6" type="typeNS" route="down" depart="23" color="1,0,0"/>
    <vehicle id="up_7" type="typeNS" route="up" depart="28" color="1,0,0"/>
    <vehicle id="right_8" type="typeWE" route="right" depart="29" />
    <vehicle id="right_9" type="typeWE" route="right" depart="36" />
    <vehicle id="left_10" type="typeWE" route="left" depart="39" />
    <vehicle id="down_11" type="typeNS" route="down" depart="40" color="1,0,0"/>
    <vehicle id="down_12" type="typeNS" route="down" depart="41" color="1,0,0"/>
    <vehicle id="right_13" type="typeWE" route="right" depart="42" />
    <vehicle id="up_14" type="typeNS" route="up" depart="42" color="1,0,0"/>
    <vehicle id="right_15" type="typeWE" route="right" depart="45" />
    <vehicle id="up_16" type="typeNS" route="up" depart="45" color="1,0,0"/>
    <vehicle id="down_17" type="typeNS" route="down" depart="46" color="1,0,0"/>
    <vehicle id="down_18" type="typeNS" route="down" depart="48" color="1,0,0"/>
    <vehicle id="right_19" type="typeWE" route="right" depart="49" />
    <vehicle id="down_20" type="typeNS" route="down" depart="51" color="1,0,0"/>
    <vehicle id="left_21" type="typeWE" route="left" depart="52" />
    <vehicle id="up_22" type="typeNS" route="up" depart="53" color="1,0,0"/>
    <vehicle id="left_23" type="typeWE" route="left" depart="60" />
    <vehicle id="down_24" type="typeNS" route="down" depart="64" color="1,0,0"/>
    <vehicle id="left_25" type="typeWE" route="left" depart="66" />
    <vehicle id="up_26" type="typeNS" route="up" depart="66" color="1,0,0"/>
    <vehicle id="left_27" type="typeWE" route="left" depart="68" />
    <vehicle id="left_28" type="typeWE" route="left" depart="69" />
    <vehicle id="down_29" type="typeNS" route="down" depart="72" color="1,0,0"/>
    <vehicle id="left_30" type="typeWE" route="left" depart="75" />
    <vehicle id="up_31" type="typeNS" route="up" depart="75" color="1,0,0"/>
    <vehicle id="right_32" type="typeWE" route="right" depart="87" />
    <vehicle id="down_33" type="typeNS" route="down" depart="90" color="1,0,0"/>
    <vehicle id="down_34" type="typeNS" route="down" depart="92" color="1,0,0"/>
    <vehicle id="up_35" type="typeNS" route="up" depart="96" color="1,0,0"/>
    <vehicle id="down_36" type="typeNS" route="down" depart="97" color="1,0,0"/>
    <vehicle id="right_37" type="typeWE" route="right" depart="101" />
    <vehicle id="left_38" type="typeWE" route="left" depart="101" />
    <vehicle id="up_39" type="typeNS" route="up" depart="105" color="1,0,0"/>
    <vehicle id="up_40" type="typeNS" route="up" depart="106" color="1,0,0"/>
    <vehicle id="left_41" type="typeWE" route="left" depart="113" />
    <vehicle id="down_42" type="typeNS" route="down" depart="118" color="1,0,0"/>
    <vehicle id="left_43" type="typeWE" route="left" depart="120" />
    <vehicle id="up_44" type="typeNS" route="up" depart="120" color="1,0,0"/>
    <vehicle id="right_45" type="typeWE" route="right" depart="126" />
    <vehicle id="down_46" type="typeNS" route="down" depart="128" color="1,0,0"/>
    <vehicle id="right_47" type="typeWE" route="right" depart="129" />
    <vehicle id="down_48" type="typeNS" route="down" depart="129" color="1,0,0"/>
    <vehicle id="right_49" type="typeWE" route="right" depart="134" />
    <vehicle id="up_50" type="typeNS" route="up" depart="137" color="1,0,0"/>
    <vehicle id="left_51" type="typeWE" route="left" depart="138" />
    <vehicle id="right_52" type="typeWE" route="right" depart="142" />
    <vehicle id="down_53" type="typeNS" route="down" depart="144" color="1,0,0"/>
    <vehicle id="down_54" type="typeNS" route="down" depart="151" color="1,0,0"/>
    <vehicle id="right_55" type="typeWE" route="right" depart="156" />
    <vehicle id="left_56" type="typeWE" route="left" depart="157" />
    <vehicle id="up_57" type="typeNS" route="up" depart="163" color="1,0,0"/>
    <vehicle id="right_58" type="typeWE" route="right" depart="165" />
    <vehicle id="down_59" type="typeNS" route="down" depart="166" color="1,0,0"/>
    <vehicle id="right_60" type="typeWE" route="right" depart="167" />
    <vehicle id="right_61" type="typeWE" route="right" depart="169" />
    <vehicle id="down_62" type="typeNS" route="down" depart="170" color="1,0,0"/>
    <vehicle id="down_63" type="typeNS" route="down" depart="172" color="1,0,0"/>
    <vehicle id="right_64" type="typeWE" route="right" depart="176" />
    <vehicle id="left_65" type="typeWE" route="left" depart="176" />
    <vehicle id="down_66" type="typeNS" route="down" depart="176" color="1,0,0"/>
    <vehicle id="right_67" type="typeWE" route="right" depart="178" />
    <vehicle id="left_68" type="typeWE" route="left" depart="182" />
    <vehicle id="left_69" type="typeWE" route="left" depart="185" />
    <vehicle id="right_70" type="typeWE" route="right" depart="197" />
    <vehicle id="right_71" type="typeWE" route="right" depart="201" />
    <vehicle id="up_72" type="typeNS" route="up" depart="203" color="1,0,0"/>
    <vehicle id="right_73" type="typeWE" route="right" depart="205" />
    <vehicle id="up_74" type="typeNS" route="up" depart="208" color="1,0,0"/>
    <vehicle id="right_75" type="typeWE" route="right" depart="209" />
    <vehicle id="up_76" type="typeNS" route="up" depart="209" color="1,0,0"/>
    <vehicle id="down_77" type="typeNS" route="down" depart="214" color="1,0,0"/>
    <vehicle id="up_78" type="typeNS" route="up" depart="214" color="1,0,0"/>
    <vehicle id="left_79" type="typeWE" route="left" depart="218" />
    <vehicle id="up_80" type="typeNS" route="up" depart="219" color="1,0,0"/>
    <vehicle id="left_81" type="typeWE" route="left" depart="223" />
    <vehicle id="down_82" type="typeNS" route="down" depart="223" color="1,0,0"/>
    <vehicle id="left_83" type="typeWE" route="left" depart="224" />
    <vehicle id="right_84" type="typeWE" route="right" depart="228" />
    <vehicle id="right_85" type="typeWE" route="right" depart="230" />
    <vehicle id="up_86" type="typeNS" route="up" depart="231" color="1,0,0"/>
    <vehicle id="right_87" type="typeWE" route="right" depart="236" />
    <vehicle id="up_88" type="typeNS" route="up" depart="247" color="1,0,0"/>
    <vehicle id="right_89" type="typeWE" route="right" depart="248" />
    <vehicle id="down_90" type="typeNS" route="down" depart="248" color="1,0,0"/>
    <vehicle id="up_91" type="typeNS" route="up" depart="248" color="1,0,0"/>
    <vehicle id="left_92" type="typeWE" route="left" depart="252" />
    <vehicle id="down_93" type="typeNS" route="down" depart="253" color="1,0,0"/>
    <vehicle id="up_94" type="typeNS" route="up" depart="253" color="1,0,0"/>
    <vehicle id="right_95" type="typeWE" route="right" depart="257" />
    <vehicle id="down_96" type="typeNS" route="down" depart="259" color="1,0,0"/>
    <vehicle id="left_97" type="typeWE" route="left" depart="261" />
    <vehicle id="up_98" type="typeNS" route="up" depart="261" color="1,0,0"/>
    <vehicle id="down_99" type="typeNS" route="down" depart="263" color="1,0,0"/>
    <vehicle id="down_100" type="typeNS" route="down" depart="265" color="1,0,0"/>
    <vehicle id="down_101" type="typeNS" route="down" depart="267" color="1,0,0"/>
    <vehicle id="right_102" type="typeWE" route="right" depart="270" />
    <vehicle id="right_103" type="typeWE" route="right" depart="271" />
    <vehicle id="up_104" type="typeNS" route="up" depart="286" color="1,0,0"/>
    <vehicle id="down_105" type="typeNS" route="down" depart="288" color="1,0,0"/>
    <vehicle id="down_106" type="typeNS" route="down" depart="290" color="1,0,0"/>
    <vehicle id="right_107" type="typeWE" route="right" depart="291" />
    <vehicle id="right_108" type="typeWE" route="right" depart="292" />
    <vehicle id="right_109" type="typeWE" route="right" depart="296" />
    <vehicle id="left_110" type="typeWE" route="left" depart="296" />
    <vehicle id="down_111" type="typeNS" route="down" depart="296" color="1,0,0"/>
    <vehicle id="down_112" type="typeNS" route="down" depart="300" color="1,0,0"/>
    <vehicle id="right_113" type="typeWE" route="right" depart="301" />
    <vehicle id="up_114" type="typeNS" route="up" depart="304" color="1,0,0"/>
    <vehicle id="right_115" type="typeWE" route="right" depart="309" />
    <vehicle id="down_116" type="typeNS" route="down" depart="309" color="1,0,0"/>
    <vehicle id="right_117" type="typeWE" route="right" depart="313" />
    <vehicle id="up_118" type="typeNS" route="up" depart="320" color="1,0,0"/>
    <vehicle id="right_119" type="typeWE" route="right" depart="323" />
    <vehicle id="up_120" type="typeNS" route="up" depart="333" color="1,0,0"/>
    <vehicle id="left_121" type="typeWE" route="left" depart="336" />
    <vehicle id="down_122" type="typeNS" route="down" depart="345" color="1,0,0"/>
    <vehicle id="down_123" type="typeNS" route="down" depart="350" color="1,0,0"/>
    <vehicle id="left_124" type="typeWE" route="left" depart="351" />
    <vehicle id="up_125" type="typeNS" route="up" depart="351" color="1,0,0"/>
    <vehicle id="up_126" type="typeNS" route="up" depart="353" color="1,0,0"/>
    <vehicle id="up_127" type="typeNS" route="up" depart="359" color="1,0,0"/>
    <vehicle id="down_128" type="typeNS" route="down" depart="364" color="1,0,0"/>
    <vehicle id="left_129" type="typeWE" route="left" depart="366" />
    <vehicle id="down_130" type="typeNS" route="down" depart="367" color="1,0,0"/>
    <vehicle id="right_131" type="typeWE" route="right" depart="369" />
    <vehicle id="down_132" type="typeNS" route="down" depart="369" color="1,0,0"/>
    <vehicle id="up_133" type="typeNS" route="up" depart="369" color="1,0,0"/>
    <vehicle id="up_134" type="typeNS" route="up" depart="370" color="1,0,0"/>
    <vehicle id="down_135" type="typeNS" route="down" depart="375" color="1,0,0"/>
    <vehicle id="left_136" type="typeWE" route="left" depart="382" />
    <vehicle id="down_137" type="typeNS" route="down" depart="384" color="1,0,0"/>
    <vehicle id="left_138" type="typeWE" route="left" depart="386" />
    <vehicle id="up_139" type="typeNS" route="up" depart="388" color="1,0,0"/>
    <vehicle id="up_140" type="typeNS" route="up" depart="391" color="1,0,0"/>
    <vehicle id="right_141" type="typeWE" route="right" depart="392" />
    <vehicle id="left_142" type="typeWE" route="left" depart="394" />
    <vehicle id="up_143" type="typeNS" route="up" depart="394" color="1,0,0"/>
    <vehicle id="right_144" type="typeWE" route="right" depart="396" />
    <vehicle id="down_145" type="typeNS" route="down" depart="396" color="1,0,0"/>
    <vehicle id="up_146" type="typeNS" route="up" depart="398" color="1,0,0"/>
    <vehicle id="right_147" type="typeWE" route="right" depart="400" />
    <vehicle id="right_148" type="typeWE" route="right" depart="403" />
    <vehicle id="right_149" type="typeWE" route="right" depart="415" />
    <vehicle id="down_150" type="typeNS" route="down" depart="416" color="1,0,0"/>
    <vehicle id="left_151" type="typeWE" route="left" depart="420" />
    <vehicle id="left_152" type="typeWE" route="left" depart="427" />
    <vehicle id="left_153" type="typeWE" route="left" depart="429" />
    <vehicle id="right_154" type="typeWE" route="right" depart="432" />
    <vehicle id="down_155" type="typeNS" route="down" depart="432" color="1,0,0"/>
    <vehicle id="down_156" type="typeNS" route="down" depart="433" color="1,0,0"/>
    <vehicle id="up_157" type="typeNS" route="up" depart="433" color="1,0,0"/>
    <vehicle id="left_158" type="typeWE" route="left" depart="436" />
    <vehicle id="down_159" type="typeNS" route="down" depart="436" color="1,0,0"/>
    <vehicle id="down_160" type="typeNS" route="down" depart="443" color="1,0,0"/>
    <vehicle id="up_161" type="typeNS" route="up" depart="445" color="1,0,0"/>
    <vehicle id="down_162" type="typeNS" route="down" depart="446" color="1,0,0"/>
    <vehicle id="right_163" type="typeWE" route="right" depart="448" />
    <vehicle id="down_164" type="typeNS" route="down" depart="457" color="1,0,0"/>
    <vehicle id="down_165" type="typeNS" route="down" depart="458" color="1,0,0"/>
    <vehicle id="right_166" type="typeWE" route="right" depart="459" />
    <vehicle id="left_167" type="typeWE" route="left" depart="459" />
    <vehicle id="left_168" type="typeWE" route="left" depart="461" />
    <vehicle id="up_169" type="typeNS" route="up" depart="465" color="1,0,0"/>
    <vehicle id="up_170" type="typeNS" route="up" depart="466" color="1,0,0"/>
    <vehicle id="down_171" type="typeNS" route="down" depart="468" color="1,0,0"/>
    <vehicle id="down_172" type="typeNS" route="down" depart="471" color="1,0,0"/>
    <vehicle id="up_173" type="typeNS" route="up" depart="472" color="1,0,0"/>
    <vehicle id="left_174" type="typeWE" route="left" depart="474" />
    <vehicle id="up_175" type="typeNS" route="up" depart="474" color="1,0,0"/>
    <vehicle id="down_176" type="typeNS" route="down" depart="481" color="1,0,0"/>
    <vehicle id="up_177" type="typeNS" route="up" depart="482" color="1,0,0"/>
    <vehicle id="up_178" type="typeNS" route="up" depart="484" color="1,0,0"/>
    <vehicle id="right_179" type="typeWE" route="right" depart="491" />
    <vehicle id="down_180" type="typeNS" route="down" depart="493" color="1,0,0"/>
    <vehicle id="right_181" type="typeWE" route="right" depart="495" />
    <vehicle id="right_182" type="typeWE" route="right" depart="496" />
    <vehicle id="down_183" type="typeNS" route="down" depart="496" color="1,0,0"/>
    <vehicle id="up_184" type="typeNS" route="up" depart="496" color="1,0,0"/>
    <vehicle id="down_185" type="typeNS" route="down" depart="499" color="1,0,0"/>
    <vehicle id="down_186" type="typeNS" route="down" depart="500" color="1,0,0"/>
    <vehicle id="left_187" type="typeWE" route="left" depart="501" />
    <vehicle id="up_188" type="typeNS" route="up" depart="508" color="1,0,0"/>
    <vehicle id="down_189" type="typeNS" route="down" depart="510" color="1,0,0"/>
    <vehicle id="left_190" type="typeWE" route="left" depart="515" />
    <vehicle id="down_191" type="typeNS" route="down" depart="515" color="1,0,0"/>
    <vehicle id="down_192" type="typeNS" route="down" depart="518" color="1,0,0"/>
    <vehicle id="right_193" type="typeWE" route="right" depart="523" />
    <vehicle id="right_194" type="typeWE" route="right" depart="524" />
    <vehicle id="right_195" type="typeWE" route="right" depart="526" />
    <vehicle id="right_196" type="typeWE" route="right" depart="527" />
    <vehicle id="down_197" type="typeNS" route="down" depart="529" color="1,0,0"/>
    <vehicle id="left_198" type="typeWE" route="left" depart="530" />
    <vehicle id="down_199" type="typeNS" route="down" depart="531" color="1,0,0"/>
    <vehicle id="down_200" type="typeNS" route="down" depart="532" color="1,0,0"/>
    <vehicle id="right_201" type="typeWE" route="right" depart="534" />
    <vehicle id="down_202" type="typeNS" route="down" depart="539" color="1,0,0"/>
    <vehicle id="right_203" type="typeWE" route="right" depart="545" />
    <vehicle id="right_204" type="typeWE" route="right" depart="547" />
    <vehicle id="right_205" type="typeWE" route="right" depart="548" />
    <vehicle id="up_206" type="typeNS" route="up" depart="551" color="1,0,0"/>
    <vehicle id="right_207" type="typeWE" route="right" depart="552" />
    <vehicle id="up_208" type="typeNS" route="up" depart="554" color="1,0,0"/>
    <vehicle id="right_209" type="typeWE" route="right" depart="558" />
    <vehicle id="down_210" type="typeNS" route="down" depart="560" color="1,0,0"/>
    <vehicle id="left_211" type="typeWE" route="left" depart="561" />
    <vehicle id="down_212" type="typeNS" route="down" depart="564" color="1,0,0"/>
    <vehicle id="up_213" type="typeNS" route="up" depart="564" color="1,0,0"/>
    <vehicle id="up_214" type="typeNS" route="up" depart="566" color="1,0,0"/>
    <vehicle id="down_215" type="typeNS" route="down" depart="571" color="1,0,0"/>
    <vehicle id="right_216" type="typeWE" route="right" depart="574" />
    <vehicle id="right_217" type="typeWE" route="right" depart="575" />
    <vehicle id="right_218" type="typeWE" route="right" depart="577" />
    <vehicle id="left_219" type="typeWE" route="left" depart="585" />
    <vehicle id="up_220" type="typeNS" route="up" depart="586" color="1,0,0"/>
    <vehicle id="up_221" type="typeNS" route="up" depart="588" color="1,0,0"/>
    <vehicle id="right_222" type="typeWE" route="right" depart="589" />
    <vehicle id="left_223" type="typeWE" route="left" depart="591" />
    <vehicle id="right_224" type="typeWE" route="right" depart="595" />
    <vehicle id="left_225" type="typeWE" route="left" depart="597" />
    <vehicle id="right_226" type="typeWE" route="right" depart="604" />
    <vehicle id="down_227" type="typeNS" route="down" depart="604" color="1,0,0"/>
    <vehicle id="right_228" type="typeWE" route="right" depart="605" />
    <vehicle id="left_229" type="typeWE" route="left" depart="606" />
    <vehicle id="up_230" type="typeNS" route="up" depart="607" color="1,0,0"/>
    <vehicle id="left_231" type="typeWE" route="left" depart="608" />
    <vehicle id="left_232" type="typeWE" route="left" depart="611" />
    <vehicle id="down_233" type="typeNS" route="down" depart="613" color="1,0,0"/>
    <vehicle id="right_234" type="typeWE" route="right" depart="616" />
    <vehicle id="down_235" type="typeNS" route="down" depart="617" color="1,0,0"/>
    <vehicle id="left_236" type="typeWE" route="left" depart="618" />
    <vehicle id="up_237" type="typeNS" route="up" depart="621" color="1,0,0"/>
    <vehicle id="up_238" type="typeNS" route="up" depart="622" color="1,0,0"/>
    <vehicle id="down_239" type="typeNS" route="down" depart="624" color="1,0,0"/>
    <vehicle id="right_240" type="typeWE" route="right" depart="633" />
    <vehicle id="down_241" type="typeNS" route="down" depart="634" color="1,0,0"/>
    <vehicle id="up_242" type="typeNS" route="up" depart="635" color="1,0,0"/>
    <vehicle id="left_243" type="typeWE" route="left" depart="636" />
    <vehicle id="down_244" type="typeNS" route="down" depart="638" color="1,0,0"/>
    <vehicle id="up_245" type="typeNS" route="up" depart="639" color="1,0,0"/>
    <vehicle id="right_246" type="typeWE" route="right" depart="642" />
    <vehicle id="up_247" type="typeNS" route="up" depart="642" color="1,0,0"/>
    <vehicle id="right_248" type="typeWE" route="right" depart="644" />
    <vehicle id="right_249" type="typeWE" route="right" depart="646" />
    <vehicle id="right_250" type="typeWE" route="right" depart="648" />
    <vehicle id="left_251" type="typeWE" route="left" depart="648" />
    <vehicle id="left_252" type="typeWE" route="left" depart="650" />
    <vehicle id="right_253" type="typeWE" route="right" depart="653" />
    <vehicle id="left_254" type="typeWE" route="left" depart="660" />
    <vehicle id="left_255" type="typeWE" route="left" depart="662" />
    <vehicle id="right_256" type="typeWE" route="right" depart="664" />
    <vehicle id="right_257" type="typeWE" route="right" depart="665" />
    <vehicle id="right_258" type="typeWE" route="right" depart="667" />
    <vehicle id="left_259" type="typeWE" route="left" depart="667" />
    <vehicle id="up_260" type="typeNS" route="up" depart="668" color="1,0,0"/>
    <vehicle id="left_261" type="typeWE" route="left" depart="669" />
    <vehicle id="up_262" type="typeNS" route="up" depart="674" color="1,0,0"/>
    <vehicle id="up_263" type="typeNS" route="up" depart="675" color="1,0,0"/>
    <vehicle id="left_264" type="typeWE" route="left" depart="677" />
    <vehicle id="down_265" type="typeNS" route="down" depart="680" color="1,0,0"/>
    <vehicle id="up_266" type="typeNS" route="up" depart="682" color="1,0,0"/>
    <vehicle id="left_267" type="typeWE" route="left" depart="683" />
    <vehicle id="down_268" type="typeNS" route="down" depart="685" color="1,0,0"/>
    <vehicle id="left_269" type="typeWE" route="left" depart="693" />
    <vehicle id="left_270" type="typeWE" route="left" depart="698" />
    <vehicle id="up_271" type="typeNS" route="up" depart="699" color="1,0,0"/>
    <vehicle id="up_272" type="typeNS" route="up" depart="700" color="1,0,0"/>
    <vehicle id="left_273" type="typeWE" route="left" depart="701" />
    <vehicle id="up_274" type="typeNS" route="up" depart="701" color="1,0,0"/>
    <vehicle id="up_275" type="typeNS" route="up" depart="703" color="1,0,0"/>
    <vehicle id="left_276" type="typeWE" route="left" depart="706" />
    <vehicle id="down_277" type="typeNS" route="down" depart="716" color="1,0,0"/>
    <vehicle id="right_278" type="typeWE" route="right" depart="718" />
    <vehicle id="down_279" type="typeNS" route="down" depart="720" color="1,0,0"/>
    <vehicle id="left_280" type="typeWE" route="left" depart="724" />
    <vehicle id="left_281" type="typeWE" route="left" depart="726" />
    <vehicle id="up_282" type="typeNS" route="up" depart="726" color="1,0,0"/>
    <vehicle id="down_283" type="typeNS" route="down" depart="727" color="1,0,0"/>
    <vehicle id="right_284" type="typeWE" route="right" depart="728" />
    <vehicle id="down_285" type="typeNS" route="down" depart="730" color="1,0,0"/>
    <vehicle id="up_286" type="typeNS" route="up" depart="730" color="1,0,0"/>
    <vehicle id="right_287" type="typeWE" route="right" depart="734" />
    <vehicle id="down_288" type="typeNS" route="down" depart="737" color="1,0,0"/>
    <vehicle id="down_289" type="typeNS" route="down" depart="739" color="1,0,0"/>
    <vehicle id="up_290" type="typeNS" route="up" depart="739" color="1,0,0"/>
    <vehicle id="up_291" type="typeNS" route="up" depart="742" color="1,0,0"/>
    <vehicle id="left_292" type="typeWE" route="left" depart="746" />
    <vehicle id="left_293" type="typeWE" route="left" depart="748" />
    <vehicle id="up_294" type="typeNS" route="up" depart="749" color="1,0,0"/>
    <vehicle id="down_295" type="typeNS" route="down" depart="751" color="1,0,0"/>
    <vehicle id="down_296" type="typeNS" route="down" depart="756" color="1,0,0"/>
    <vehicle id="down_297" type="typeNS" route="down" depart="757" color="1,0,0"/>
    <vehicle id="down_298" type="typeNS" route="down" depart="760" color="1,0,0"/>
    <vehicle id="up_299" type="typeNS" route="up" depart="761" color="1,0,0"/>
    <vehicle id="up_300" type="typeNS" route="up" depart="764" color="1,0,0"/>
    <vehicle id="right_301" type="typeWE" route="right" depart="767" />
    <vehicle id="right_302" type="typeWE" route="right" depart="768" />
    <vehicle id="down_303" type="typeNS" route="down" depart="772" color="1,0,0"/>
    <vehicle id="up_304" type="typeNS" route="up" depart="785" color="1,0,0"/>
    <vehicle id="right_305" type="typeWE" route="right" depart="786" />
    <vehicle id="left_306" type="typeWE" route="left" depart="792" />
    <vehicle id="right_307" type="typeWE" route="right" depart="793" />
    <vehicle id="down_308" type="typeNS" route="down" depart="793" color="1,0,0"/>
    <vehicle id="up_309" type="typeNS" route="up" depart="796" color="1,0,0"/>
    <vehicle id="left_310" type="typeWE" route="left" depart="799" />
    <vehicle id="down_311" type="typeNS" route="down" depart="805" color="1,0,0"/>
    <vehicle id="down_312" type="typeNS" route="down" depart="807" color="1,0,0"/>
    <vehicle id="up_313" type="typeNS" route="up" depart="808" color="1,0,0"/>
    <vehicle id="left_314" type="typeWE" route="left" depart="809" />
    <vehicle id="right_315" type="typeWE" route="right" depart="815" />
    <vehicle id="down_316" type="typeNS" route="down" depart="817" color="1,0,0"/>
    <vehicle id="right_317" type="typeWE" route="right" depart="818" />
    <vehicle id="up_318" type="typeNS" route="up" depart="819" color="1,0,0"/>
    <vehicle id="left_319" type="typeWE" route="left" depart="821" />
    <vehicle id="up_320" type="typeNS" route="up" depart="821" color="1,0,0"/>
    <vehicle id="right_321" type="typeWE" route="right" depart="822" />
    <vehicle id="left_322" type="typeWE" route="left" depart="824" />
    <vehicle id="up_323" type="typeNS" route="up" depart="826" color="1,0,0"/>
    <vehicle id="up_324" type="typeNS" route="up" depart="829" color="1,0,0"/>
    <vehicle id="down_325" type="typeNS" route="down" depart="830" color="1,0,0"/>
    <vehicle id="up_326" type="typeNS" route="up" depart="832" color="1,0,0"/>
    <vehicle id="up_327" type="typeNS" route="up" depart="834" color="1,0,0"/>
    <vehicle id="left_328" type="typeWE" route="left" depart="835" />
    <vehicle id="up_329" type="typeNS" route="up" depart="837" color="1,0,0"/>
    <vehicle id="down_330" type="typeNS" route="down" depart="841" color="1,0,0"/>
    <vehicle id="up_331" type="typeNS" route="up" depart="841" color="1,0,0"/>
    <vehicle id="up_332" type="typeNS" route="up" depart="843" color="1,0,0"/>
    <vehicle id="left_333" type="typeWE" route="left" depart="848" />
    <vehicle id="down_334" type="typeNS" route="down" depart="849" color="1,0,0"/>
    <vehicle id="up_335" type="typeNS" route="up" depart="851" color="1,0,0"/>
    <vehicle id="right_336" type="typeWE" route="right" depart="852" />
    <vehicle id="up_337" type="typeNS" route="up" depart="852" color="1,0,0"/>
    <vehicle id="down_338" type="typeNS" route="down" depart="853" color="1,0,0"/>
    <vehicle id="up_339" type="typeNS" route="up" depart="853" color="1,0,0"/>
    <vehicle id="left_340" type="typeWE" route="left" depart="856" />
    <vehicle id="down_341" type="typeNS" route="down" depart="859" color="1,0,0"/>
    <vehicle id="left_342" type="typeWE" route="left" depart="860" />
    <vehicle id="down_343" type="typeNS" route="down" depart="860" color="1,0,0"/>
    <vehicle id="up_344" type="typeNS" route="up" depart="863" color="1,0,0"/>
    <vehicle id="down_345" type="typeNS" route="down" depart="867" color="1,0,0"/>
    <vehicle id="right_346" type="typeWE" route="right" depart="870" />
    <vehicle id="left_347" type="typeWE" route="left" depart="873" />
    <vehicle id="left_348" type="typeWE" route="left" depart="877" />
    <vehicle id="up_349" type="typeNS" route="up" depart="878" color="1,0,0"/>
    <vehicle id="up_350" type="typeNS" route="up" depart="881" color="1,0,0"/>
    <vehicle id="right_351" type="typeWE" route="right" depart="882" />
    <vehicle id="left_352" type="typeWE" route="left" depart="882" />
    <vehicle id="left_353" type="typeWE" route="left" depart="885" />
    <vehicle id="right_354" type="typeWE" route="right" depart="887" />
    <vehicle id="up_355" type="typeNS" route="up" depart="889" color="1,0,0"/>
    <vehicle id="right_356" type="typeWE" route="right" depart="890" />
    <vehicle id="up_357" type="typeNS" route="up" depart="892" color="1,0,0"/>
    <vehicle id="down_358" type="typeNS" route="down" depart="893" color="1,0,0"/>
    <vehicle id="up_359" type="typeNS" route="up" depart="894" color="1,0,0"/>
    <vehicle id="right_360" type="typeWE" route="right" depart="903" />
    <vehicle id="left_361" type="typeWE" route="left" depart="903" />
    <vehicle id="up_362" type="typeNS" route="up" depart="903" color="1,0,0"/>
    <vehicle id="down_363" type="typeNS" route="down" depart="906" color="1,0,0"/>
    <vehicle id="up_364" type="typeNS" route="up" depart="907" color="1,0,0"/>
    <vehicle id="right_365" type="typeWE" route="right" depart="909" />
    <vehicle id="left_366" type="typeWE" route="left" depart="911" />
    <vehicle id="right_367" type="typeWE" route="right" depart="927" />
    <vehicle id="up_368" type="typeNS" route="up" depart="937" color="1,0,0"/>
    <vehicle id="up_369" type="typeNS" route="up" depart="938" color="1,0,0"/>
    <vehicle id="down_370" type="typeNS" route="down" depart="939" color="1,0,0"/>
    <vehicle id="down_371" type="typeNS" route="down" depart="940" color="1,0,0"/>
    <vehicle id="left_372" type="typeWE" route="left" depart="945" />
    <vehicle id="left_373" type="typeWE" route="left" depart="948" />
    <vehicle id="right_374" type="typeWE" route="right" depart="951" />
    <vehicle id="up_375" type="typeNS" route="up" depart="953" color="1,0,0"/>
    <vehicle id="right_376" type="typeWE" route="right" depart="960" />
    <vehicle id="down_377" type="typeNS" route="down" depart="964" color="1,0,0"/>
    <vehicle id="up_378" type="typeNS" route="up" depart="964" color="1,0,0"/>
    <vehicle id="up_379" type="typeNS" route="up" depart="966" color="1,0,0"/>
    <vehicle id="down_380" type="typeNS" route="down" depart="967" color="1,0,0"/>
    <vehicle id="up_381" type="typeNS" route="up" depart="967" color="1,0,0"/>
    <vehicle id="down_382" type="typeNS" route="down" depart="968" color="1,0,0"/>
    <vehicle id="right_383" type="typeWE" route="right" depart="976" />
    <vehicle id="left_384" type="typeWE" route="left" depart="976" />
    <vehicle id="left_385" type="typeWE" route="left" depart="981" />
    <vehicle id="right_386" type="typeWE" route="right" depart="986" />
    <vehicle id="right_387" type="typeWE" route="right" depart="990" />