<routes>
            <vType id="typeWE" accel="0.8" decel="4.5" sigma="0.5" length="5" minGap="2.5" maxSpeed="16.67" guiShape="passenger"/>
            <vType id="typeNS" accel="0.8" decel="4.5" sigma="0.5" length="7" minGap="3" maxSpeed="25" guiShape="bus"/>
            <route id="right" edges="51o 1i 2o 52i" />
            <route id="left" edges="52o 2i 1o 51i" />
            <route id="down" edges="54o 4i 3o 53i" />
    <vehicle id="left_0" type="typeWE" route="left" depart="3" />
    <vehicle id="left_1" type="typeWE" route="left" depart="15" />
    <vehicle id="left_2" type="typeWE" route="left" depart="42" />
    <vehicle id="left_3" type="typeWE" route="left" depart="56" />
    <vehicle id="left_4" type="typeWE" route="left" depart="59" />
    <vehicle id="left_5" type="typeWE" route="left" depart="60" />
    <vehicle id="left_6" type="typeWE" route="left" depart="89" />
    <vehicle id="left_7" type="typeWE" route="left" depart="91" />
</routes>
