<?xml version="1.0"?>
<!-- generated on 2017-09-05 15:39:38.255557 by $Id: randomTrips.py 23999 2017-04-21 09:04:47Z behrisch $
  options: -n aarhus.net.xml -r aarhus.rou.xml -e 100 -l
-->
<routes xmlns:xsi="http://www.w3.org/2001/XMLSchema-instance" xsi:noNamespaceSchemaLocation="http://sumo.dlr.de/xsd/routes_file.xsd">
    <trip id="0" depart="0.00" from="153531786#0" to="22958996#11"/>
    <trip id="1" depart="1.00" from="-26815232#2" to="510624305"/>
    <trip id="2" depart="2.00" from="37930626#2" to="-41733278#0"/>
    <trip id="3" depart="3.00" from="272706510#1" to="-51841151#4"/>
    <trip id="4" depart="4.00" from="24736787#3" to="26815262#0"/>
    <trip id="5" depart="5.00" from="-26815232#0" to="517466665#0"/>
    <trip id="6" depart="6.00" from="44829596#4" to="352043479#4"/>
    <trip id="7" depart="7.00" from="41733279#1" to="23205066#2"/>
    <trip id="8" depart="8.00" from="161469247#0" to="26815253#0"/>
    <trip id="9" depart="9.00" from="153531786#0" to="-24721931#0"/>
    <trip id="10" depart="10.00" from="24721928#8" to="23205066#4"/>
    <trip id="11" depart="11.00" from="20037814#4" to="-22958996#8"/>
    <trip id="12" depart="12.00" from="20037814#2" to="56323455#3"/>
    <trip id="13" depart="13.00" from="-51837591" to="-20037814#0"/>
    <trip id="14" depart="14.00" from="22958996#9" to="26815253#0"/>
    <trip id="15" depart="15.00" from="41733278#2" to="37930627#1"/>
    <trip id="16" depart="16.00" from="-20037814#2" to="51841131#0"/>
    <trip id="17" depart="17.00" from="161469247#0" to="-16806811#0"/>
    <trip id="18" depart="18.00" from="56323455#0" to="23205066#3"/>
    <trip id="19" depart="19.00" from="-26815225#3" to="-26815253#1"/>
    <trip id="20" depart="20.00" from="-20037814#6" to="-23205066#4"/>
    <trip id="21" depart="21.00" from="20037814#1" to="23205066#4"/>
    <trip id="22" depart="22.00" from="16806811#1" to="30785536#1"/>
    <trip id="23" depart="23.00" from="41734776#6" to="56323455#0"/>
    <trip id="24" depart="24.00" from="51841137#1" to="56323455#0"/>
    <trip id="25" depart="25.00" from="-51841131#11" to="-20037814#0"/>
    <trip id="26" depart="26.00" from="-22958996#13" to="56323455#0"/>
    <trip id="27" depart="27.00" from="51837584#0" to="-37930627#0"/>
    <trip id="28" depart="28.00" from="51837584#1" to="517466668"/>
    <trip id="29" depart="29.00" from="26815225#2" to="510624280#1"/>
    <trip id="30" depart="30.00" from="352043479#1" to="8101187"/>
    <trip id="31" depart="31.00" from="51841131#5" to="44829596#4"/>
    <trip id="32" depart="32.00" from="-26815253#1" to="26815225#1"/>
    <trip id="33" depart="33.00" from="510624276#0" to="8101187"/>
    <trip id="34" depart="34.00" from="-41733278#5" to="41733279#1"/>
    <trip id="35" depart="35.00" from="26815176#5" to="51837584#1"/>
    <trip id="36" depart="36.00" from="56323456" to="51841131#3"/>
    <trip id="37" depart="37.00" from="-26815253#1" to="16806811#2"/>
    <trip id="38" depart="38.00" from="41733279#3" to="-51841131#2"/>
    <trip id="39" depart="39.00" from="352043479#4" to="-26815253#1"/>
    <trip id="40" depart="40.00" from="20037909#8" to="56323455#3"/>
    <trip id="41" depart="41.00" from="-26815253#1" to="44829596#1"/>
    <trip id="42" depart="42.00" from="161226647#0" to="51841131#2"/>
    <trip id="43" depart="43.00" from="37930620#3" to="41987079#1"/>
    <trip id="44" depart="44.00" from="32961890" to="41734779#2"/>
    <trip id="45" depart="45.00" from="-41733278#0" to="24721928#6"/>
    <trip id="46" depart="46.00" from="-26815262#2" to="-52004188#1"/>
    <trip id="47" depart="47.00" from="-23205066#3" to="24721936#4"/>
    <trip id="48" depart="48.00" from="-22958996#5" to="51944666#0"/>
    <trip id="49" depart="49.00" from="-52004188#1" to="272706510#1"/>
    <trip id="50" depart="50.00" from="-20037814#2" to="34876452#2"/>
    <trip id="51" depart="51.00" from="-22958996#7" to="24736787#4"/>
    <trip id="52" depart="52.00" from="-24721936#3" to="510624280#0"/>
    <trip id="53" depart="53.00" from="-20037909#8" to="26815262#0"/>
    <trip id="54" depart="54.00" from="-37930629#1" to="-30986575#0"/>
    <trip id="55" depart="55.00" from="26815176#1" to="52004187#1"/>
    <trip id="56" depart="56.00" from="161469247#3" to="-20037850#19"/>
    <trip id="57" depart="57.00" from="-22958996#8" to="20037814#6"/>
    <trip id="58" depart="58.00" from="-26815232#2" to="56323455#3"/>
    <trip id="59" depart="59.00" from="51841131#2" to="23205066#4"/>
    <trip id="60" depart="60.00" from="16806811#0" to="-23205066#3"/>
    <trip id="61" depart="61.00" from="-37930626#2" to="51837591"/>
    <trip id="62" depart="62.00" from="-26815225#0" to="-32961890"/>
    <trip id="63" depart="63.00" from="51930165#0" to="51841131#9"/>
    <trip id="64" depart="64.00" from="51841131#8" to="-37930626#2"/>
    <trip id="65" depart="65.00" from="161469247#2" to="-23205066#2"/>
    <trip id="66" depart="66.00" from="30986575#2" to="-20037814#7"/>
    <trip id="67" depart="67.00" from="20037814#2" to="51930163#1"/>
    <trip id="68" depart="68.00" from="56323455#0" to="51841137#2"/>
    <trip id="69" depart="69.00" from="20037909#1" to="-24721931#2"/>
    <trip id="70" depart="70.00" from="24721928#8" to="51837590"/>
    <trip id="71" depart="71.00" from="30986561#0" to="-23205066#3"/>
    <trip id="72" depart="72.00" from="-24721928#1" to="-37930626#3"/>
    <trip id="73" depart="73.00" from="26815232#1" to="8101187"/>
    <trip id="74" depart="74.00" from="26815176#2" to="-51841151#2"/>
    <trip id="75" depart="75.00" from="161469247#4" to="26815232#1"/>
    <trip id="76" depart="76.00" from="44829596#1" to="20037909#3"/>
    <trip id="77" depart="77.00" from="-34876452#2" to="37930626#2"/>
    <trip id="78" depart="78.00" from="-352043479#0" to="-22958996#10"/>
    <trip id="79" depart="79.00" from="56323455#0" to="517466668"/>
    <trip id="80" depart="80.00" from="-20037814#5" to="23205066#4"/>
    <trip id="81" depart="81.00" from="56323456" to="-26815232#2"/>
    <trip id="82" depart="82.00" from="26815232#3" to="41987079#0"/>
    <trip id="83" depart="83.00" from="51837584#0" to="20037814#5"/>
    <trip id="84" depart="84.00" from="161469247#4" to="22958996#10"/>
    <trip id="85" depart="85.00" from="-24721928#8" to="-20037814#1"/>
    <trip id="86" depart="86.00" from="41733278#2" to="44829596#2"/>
    <trip id="87" depart="87.00" from="153531786#0" to="-30986575#2"/>
    <trip id="88" depart="88.00" from="-20037909#1" to="51841131#2"/>
    <trip id="89" depart="89.00" from="-51841151#2" to="44829596#1"/>
    <trip id="90" depart="90.00" from="517466665#0" to="51841131#4"/>
    <trip id="91" depart="91.00" from="161226647#1" to="56323455#0"/>
    <trip id="92" depart="92.00" from="-41734791" to="-51841131#4"/>
    <trip id="93" depart="93.00" from="-51841151#3" to="127101782#1"/>
    <trip id="94" depart="94.00" from="20037850#13" to="-32961890"/>
    <trip id="95" depart="95.00" from="23205066#4" to="-51841131#7"/>
    <trip id="96" depart="96.00" from="-24721931#7" to="517466666"/>
    <trip id="97" depart="97.00" from="51837584#0" to="272706510#0"/>
    <trip id="98" depart="98.00" from="51837584#0" to="26815176#3"/>
    <trip id="99" depart="99.00" from="153531786#0" to="24721931#5"/>
</routes>
