<routes>
            <vType id="typeWE" accel="0.8" decel="4.5" sigma="0.5" length="5" minGap="2.5" maxSpeed="16.67" guiShape="passenger"/>
            <vType id="typeNS" accel="0.8" decel="4.5" sigma="0.5" length="5" minGap="2.5" maxSpeed="16.67" guiShape="passenger"/>
            <route id="right" edges="51o 1i_a 2o 1o_b 52o" />
            <route id="left" edges="52i 1i_b 2i 1o_a 51i" />
            <route id="up_a" edges="53o 3i_a 4o_a 54i" />
            <route id="down_a" edges="54o 4i_a 3o_a 53i" />
            <route id="up_b" edges="3i_b 4o_b" />
            <route id="down_b" edges="4i_b 3o_b" />
    <vehicle id="up_0" type="typeNS" route="up_b" depart="0"/>
    <vehicle id="up_1" type="typeNS" route="up_a" depart="3"/>
    <vehicle id="left_2" type="typeWE" route="left" depart="4" />
    <vehicle id="up_3" type="typeNS" route="up_b" depart="4"/>
    <vehicle id="up_4" type="typeNS" route="up_b" depart="7"/>
    <vehicle id="right_5" type="typeWE" route="right" depart="8" />
    <vehicle id="up_6" type="typeNS" route="up_b" depart="9"/>
    <vehicle id="down_7" type="typeNS" route="down_a" depart="11"/>
    <vehicle id="up_8" type="typeNS" route="up_b" depart="16"/>
    <vehicle id="up_9" type="typeNS" route="down_b" depart="16"/>
    <vehicle id="down_10" type="typeNS" route="down_a" depart="17"/>
    <vehicle id="up_11" type="typeNS" route="down_b" depart="19"/>
    <vehicle id="down_12" type="typeNS" route="down_a" depart="24"/>
    <vehicle id="up_13" type="typeNS" route="up_b" depart="28"/>
    <vehicle id="left_14" type="typeWE" route="left" depart="29" />
    <vehicle id="right_15" type="typeWE" route="right" depart="31" />
    <vehicle id="down_16" type="typeNS" route="down_a" depart="37"/>
    <vehicle id="right_17" type="typeWE" route="right" depart="38" />
    <vehicle id="up_18" type="typeNS" route="down_b" depart="40"/>
    <vehicle id="right_19" type="typeWE" route="right" depart="41" />
    <vehicle id="left_20" type="typeWE" route="left" depart="42" />
    <vehicle id="up_21" type="typeNS" route="down_b" depart="42"/>
    <vehicle id="right_22" type="typeWE" route="right" depart="44" />
    <vehicle id="right_23" type="typeWE" route="right" depart="46" />
    <vehicle id="left_24" type="typeWE" route="left" depart="47" />
    <vehicle id="up_25" type="typeNS" route="up_b" depart="48"/>
    <vehicle id="up_26" type="typeNS" route="up_b" depart="50"/>
    <vehicle id="right_27" type="typeWE" route="right" depart="52" />
    <vehicle id="left_28" type="typeWE" route="left" depart="52" />
    <vehicle id="up_29" type="typeNS" route="up_a" depart="52"/>
    <vehicle id="up_30" type="typeNS" route="up_a" depart="54"/>
    <vehicle id="right_31" type="typeWE" route="right" depart="55" />
    <vehicle id="down_32" type="typeNS" route="down_a" depart="56"/>
    <vehicle id="up_33" type="typeNS" route="up_b" depart="57"/>
    <vehicle id="up_34" type="typeNS" route="down_b" depart="62"/>
    <vehicle id="up_35" type="typeNS" route="up_b" depart="64"/>
    <vehicle id="right_36" type="typeWE" route="right" depart="66" />
    <vehicle id="up_37" type="typeNS" route="up_a" depart="69"/>
    <vehicle id="up_38" type="typeNS" route="up_b" depart="69"/>
    <vehicle id="right_39" type="typeWE" route="right" depart="74" />
    <vehicle id="up_40" type="typeNS" route="up_b" depart="74"/>
    <vehicle id="down_41" type="typeNS" route="down_a" depart="77"/>
    <vehicle id="up_42" type="typeNS" route="down_b" depart="78"/>
    <vehicle id="down_43" type="typeNS" route="down_a" depart="79"/>
    <vehicle id="up_44" type="typeNS" route="up_a" depart="79"/>
    <vehicle id="down_45" type="typeNS" route="down_a" depart="84"/>
    <vehicle id="up_46" type="typeNS" route="up_a" depart="86"/>
    <vehicle id="up_47" type="typeNS" route="down_b" depart="86"/>
    <vehicle id="down_48" type="typeNS" route="down_a" depart="90"/>
    <vehicle id="up_49" type="typeNS" route="up_a" depart="92"/>
    <vehicle id="left_50" type="typeWE" route="left" depart="93" />
    <vehicle id="up_51" type="typeNS" route="up_a" depart="93"/>
    <vehicle id="up_52" type="typeNS" route="up_b" depart="94"/>
    <vehicle id="right_53" type="typeWE" route="right" depart="98" />
    <vehicle id="up_54" type="typeNS" route="up_b" depart="98"/>
    <vehicle id="up_55" type="typeNS" route="up_b" depart="100"/>
    <vehicle id="up_56" type="typeNS" route="up_a" depart="102"/>
    <vehicle id="down_57" type="typeNS" route="down_a" depart="103"/>
    <vehicle id="down_58" type="typeNS" route="down_a" depart="104"/>
    <vehicle id="up_59" type="typeNS" route="up_a" depart="107"/>
    <vehicle id="up_60" type="typeNS" route="up_a" depart="112"/>
    <vehicle id="left_61" type="typeWE" route="left" depart="121" />
    <vehicle id="left_62" type="typeWE" route="left" depart="123" />
    <vehicle id="up_63" type="typeNS" route="up_a" depart="123"/>
    <vehicle id="up_64" type="typeNS" route="up_b" depart="129"/>
    <vehicle id="up_65" type="typeNS" route="down_b" depart="130"/>
    <vehicle id="up_66" type="typeNS" route="up_a" depart="133"/>
    <vehicle id="up_67" type="typeNS" route="up_a" depart="135"/>
    <vehicle id="left_68" type="typeWE" route="left" depart="137" />
    <vehicle id="right_69" type="typeWE" route="right" depart="141" />
    <vehicle id="up_70" type="typeNS" route="up_a" depart="144"/>
    <vehicle id="right_71" type="typeWE" route="right" depart="146" />
    <vehicle id="left_72" type="typeWE" route="left" depart="147" />
    <vehicle id="right_73" type="typeWE" route="right" depart="148" />
    <vehicle id="left_74" type="typeWE" route="left" depart="148" />
    <vehicle id="up_75" type="typeNS" route="down_b" depart="148"/>
    <vehicle id="up_76" type="typeNS" route="up_a" depart="149"/>
    <vehicle id="up_77" type="typeNS" route="up_b" depart="149"/>
    <vehicle id="up_78" type="typeNS" route="up_b" depart="150"/>
    <vehicle id="right_79" type="typeWE" route="right" depart="151" />
    <vehicle id="up_80" type="typeNS" route="up_b" depart="151"/>
    <vehicle id="up_81" type="typeNS" route="up_a" depart="153"/>
    <vehicle id="up_82" type="typeNS" route="up_b" depart="159"/>
    <vehicle id="up_83" type="typeNS" route="up_a" depart="161"/>
    <vehicle id="down_84" type="typeNS" route="down_a" depart="168"/>
    <vehicle id="down_85" type="typeNS" route="down_a" depart="169"/>
    <vehicle id="up_86" type="typeNS" route="up_a" depart="171"/>
    <vehicle id="left_87" type="typeWE" route="left" depart="172" />
    <vehicle id="up_88" type="typeNS" route="up_a" depart="174"/>
    <vehicle id="up_89" type="typeNS" route="up_b" depart="176"/>
    <vehicle id="up_90" type="typeNS" route="down_b" depart="176"/>
    <vehicle id="down_91" type="typeNS" route="down_a" depart="178"/>
    <vehicle id="up_92" type="typeNS" route="up_b" depart="178"/>
    <vehicle id="right_93" type="typeWE" route="right" depart="180" />
    <vehicle id="up_94" type="typeNS" route="up_a" depart="180"/>
    <vehicle id="left_95" type="typeWE" route="left" depart="182" />
    <vehicle id="up_96" type="typeNS" route="up_a" depart="182"/>
    <vehicle id="up_97" type="typeNS" route="down_b" depart="182"/>
    <vehicle id="left_98" type="typeWE" route="left" depart="184" />
    <vehicle id="right_99" type="typeWE" route="right" depart="185" />
    <vehicle id="up_100" type="typeNS" route="down_b" depart="187"/>
    <vehicle id="up_101" type="typeNS" route="up_b" depart="188"/>
    <vehicle id="up_102" type="typeNS" route="up_b" depart="191"/>
    <vehicle id="up_103" type="typeNS" route="down_b" depart="192"/>
    <vehicle id="left_104" type="typeWE" route="left" depart="193" />
    <vehicle id="right_105" type="typeWE" route="right" depart="197" />
    <vehicle id="right_106" type="typeWE" route="right" depart="200" />
    <vehicle id="up_107" type="typeNS" route="up_a" depart="201"/>
    <vehicle id="down_108" type="typeNS" route="down_a" depart="203"/>
    <vehicle id="up_109" type="typeNS" route="down_b" depart="203"/>
    <vehicle id="right_110" type="typeWE" route="right" depart="204" />
    <vehicle id="up_111" type="typeNS" route="down_b" depart="204"/>
    <vehicle id="up_112" type="typeNS" route="up_b" depart="207"/>
    <vehicle id="up_113" type="typeNS" route="up_a" depart="209"/>
    <vehicle id="up_114" type="typeNS" route="down_b" depart="209"/>
    <vehicle id="right_115" type="typeWE" route="right" depart="210" />
    <vehicle id="left_116" type="typeWE" route="left" depart="217" />
    <vehicle id="left_117" type="typeWE" route="left" depart="220" />
    <vehicle id="down_118" type="typeNS" route="down_a" depart="220"/>
    <vehicle id="up_119" type="typeNS" route="up_b" depart="225"/>
    <vehicle id="up_120" type="typeNS" route="down_b" depart="228"/>
    <vehicle id="up_121" type="typeNS" route="down_b" depart="229"/>
    <vehicle id="up_122" type="typeNS" route="up_a" depart="230"/>
    <vehicle id="right_123" type="typeWE" route="right" depart="231" />
    <vehicle id="left_124" type="typeWE" route="left" depart="231" />
    <vehicle id="up_125" type="typeNS" route="up_a" depart="232"/>
    <vehicle id="up_126" type="typeNS" route="up_b" depart="234"/>
    <vehicle id="down_127" type="typeNS" route="down_a" depart="238"/>
    <vehicle id="up_128" type="typeNS" route="up_b" depart="242"/>
    <vehicle id="up_129" type="typeNS" route="down_b" depart="244"/>
    <vehicle id="right_130" type="typeWE" route="right" depart="245" />
    <vehicle id="left_131" type="typeWE" route="left" depart="248" />
    <vehicle id="down_132" type="typeNS" route="down_a" depart="248"/>
    <vehicle id="up_133" type="typeNS" route="down_b" depart="252"/>
    <vehicle id="right_134" type="typeWE" route="right" depart="254" />
    <vehicle id="up_135" type="typeNS" route="up_a" depart="254"/>
    <vehicle id="left_136" type="typeWE" route="left" depart="255" />
    <vehicle id="up_137" type="typeNS" route="down_b" depart="255"/>
    <vehicle id="right_138" type="typeWE" route="right" depart="256" />
    <vehicle id="up_139" type="typeNS" route="up_b" depart="258"/>
    <vehicle id="right_140" type="typeWE" route="right" depart="262" />
    <vehicle id="up_141" type="typeNS" route="up_a" depart="264"/>
    <vehicle id="up_142" type="typeNS" route="up_b" depart="267"/>
    <vehicle id="left_143" type="typeWE" route="left" depart="270" />
    <vehicle id="down_144" type="typeNS" route="down_a" depart="270"/>
    <vehicle id="up_145" type="typeNS" route="up_b" depart="273"/>
    <vehicle id="up_146" type="typeNS" route="up_a" depart="274"/>
    <vehicle id="down_147" type="typeNS" route="down_a" depart="277"/>
    <vehicle id="up_148" type="typeNS" route="up_a" depart="277"/>
    <vehicle id="right_149" type="typeWE" route="right" depart="279" />
    <vehicle id="up_150" type="typeNS" route="down_b" depart="280"/>
    <vehicle id="up_151" type="typeNS" route="down_b" depart="281"/>
    <vehicle id="up_152" type="typeNS" route="up_a" depart="284"/>
    <vehicle id="up_153" type="typeNS" route="down_b" depart="284"/>
    <vehicle id="left_154" type="typeWE" route="left" depart="285" />
    <vehicle id="up_155" type="typeNS" route="up_a" depart="286"/>
    <vehicle id="right_156" type="typeWE" route="right" depart="287" />
    <vehicle id="up_157" type="typeNS" route="down_b" depart="290"/>
    <vehicle id="left_158" type="typeWE" route="left" depart="299" />
    <vehicle id="up_159" type="typeNS" route="up_a" depart="299"/>
</routes>
