<routes>
            <vType id="typeWE" accel="0.8" decel="4.5" sigma="0.5" length="5" minGap="2.5" maxSpeed="16.67" guiShape="passenger"/>
            <vType id="typeNS" accel="0.8" decel="4.5" sigma="0.5" length="5" minGap="2.5" maxSpeed="16.67" guiShape="passenger"/>
            <route id="right" edges="51o 1i_a 2o 1o_b 52o" />
            <route id="left" edges="52i 1i_b 2i 1o_a 51i" />
            <route id="up_a" edges="53o 3i_a 4o_a 54i" />
            <route id="down_a" edges="54o 4i_a 3o_a 53i" />
            <route id="up_b" edges="3i_b 4o_b" />
            <route id="down_b" edges="4i_b 3o_b" />
    <vehicle id="right_0" type="typeWE" route="right" depart="1" />
    <vehicle id="up_1" type="typeNS" route="up_b" depart="2"/>
    <vehicle id="left_2" type="typeWE" route="left" depart="5" />
    <vehicle id="left_3" type="typeWE" route="left" depart="8" />
    <vehicle id="up_4" type="typeNS" route="down_b" depart="9"/>
    <vehicle id="up_5" type="typeNS" route="down_b" depart="10"/>
    <vehicle id="right_6" type="typeWE" route="right" depart="13" />
    <vehicle id="up_7" type="typeNS" route="up_a" depart="13"/>
    <vehicle id="down_8" type="typeNS" route="down_a" depart="15"/>
    <vehicle id="right_9" type="typeWE" route="right" depart="16" />
    <vehicle id="up_10" type="typeNS" route="up_b" depart="16"/>
    <vehicle id="up_11" type="typeNS" route="down_b" depart="18"/>
    <vehicle id="left_12" type="typeWE" route="left" depart="19" />
    <vehicle id="down_13" type="typeNS" route="down_a" depart="19"/>
    <vehicle id="up_14" type="typeNS" route="down_b" depart="19"/>
    <vehicle id="left_15" type="typeWE" route="left" depart="20" />
    <vehicle id="down_16" type="typeNS" route="down_a" depart="23"/>
    <vehicle id="up_17" type="typeNS" route="down_b" depart="29"/>
    <vehicle id="left_18" type="typeWE" route="left" depart="32" />
    <vehicle id="up_19" type="typeNS" route="up_b" depart="33"/>
    <vehicle id="down_20" type="typeNS" route="down_a" depart="36"/>
    <vehicle id="down_21" type="typeNS" route="down_a" depart="37"/>
    <vehicle id="up_22" type="typeNS" route="down_b" depart="38"/>
    <vehicle id="left_23" type="typeWE" route="left" depart="40" />
    <vehicle id="up_24" type="typeNS" route="up_b" depart="41"/>
    <vehicle id="up_25" type="typeNS" route="up_a" depart="42"/>
    <vehicle id="right_26" type="typeWE" route="right" depart="44" />
    <vehicle id="left_27" type="typeWE" route="left" depart="45" />
    <vehicle id="down_28" type="typeNS" route="down_a" depart="47"/>
    <vehicle id="up_29" type="typeNS" route="up_a" depart="50"/>
    <vehicle id="up_30" type="typeNS" route="up_b" depart="51"/>
    <vehicle id="up_31" type="typeNS" route="up_a" depart="55"/>
    <vehicle id="up_32" type="typeNS" route="up_a" depart="56"/>
    <vehicle id="up_33" type="typeNS" route="up_b" depart="58"/>
    <vehicle id="up_34" type="typeNS" route="up_a" depart="59"/>
    <vehicle id="right_35" type="typeWE" route="right" depart="60" />
    <vehicle id="up_36" type="typeNS" route="up_a" depart="61"/>
    <vehicle id="down_37" type="typeNS" route="down_a" depart="63"/>
    <vehicle id="down_38" type="typeNS" route="down_a" depart="65"/>
    <vehicle id="up_39" type="typeNS" route="down_b" depart="65"/>
    <vehicle id="down_40" type="typeNS" route="down_a" depart="66"/>
    <vehicle id="up_41" type="typeNS" route="up_b" depart="68"/>
    <vehicle id="left_42" type="typeWE" route="left" depart="70" />
    <vehicle id="right_43" type="typeWE" route="right" depart="71" />
    <vehicle id="left_44" type="typeWE" route="left" depart="72" />
    <vehicle id="right_45" type="typeWE" route="right" depart="77" />
    <vehicle id="left_46" type="typeWE" route="left" depart="77" />
    <vehicle id="up_47" type="typeNS" route="down_b" depart="78"/>
    <vehicle id="up_48" type="typeNS" route="down_b" depart="79"/>
    <vehicle id="up_49" type="typeNS" route="up_a" depart="80"/>
    <vehicle id="left_50" type="typeWE" route="left" depart="82" />
    <vehicle id="down_51" type="typeNS" route="down_a" depart="82"/>
    <vehicle id="up_52" type="typeNS" route="up_a" depart="83"/>
    <vehicle id="up_53" type="typeNS" route="up_b" depart="83"/>
    <vehicle id="up_54" type="typeNS" route="down_b" depart="85"/>
    <vehicle id="left_55" type="typeWE" route="left" depart="86" />
    <vehicle id="right_56" type="typeWE" route="right" depart="87" />
    <vehicle id="up_57" type="typeNS" route="down_b" depart="87"/>
    <vehicle id="up_58" type="typeNS" route="up_a" depart="97"/>
    <vehicle id="up_59" type="typeNS" route="up_b" depart="97"/>
    <vehicle id="left_60" type="typeWE" route="left" depart="98" />
    <vehicle id="left_61" type="typeWE" route="left" depart="99" />
    <vehicle id="down_62" type="typeNS" route="down_a" depart="99"/>
    <vehicle id="left_63" type="typeWE" route="left" depart="101" />
    <vehicle id="up_64" type="typeNS" route="down_b" depart="101"/>
    <vehicle id="down_65" type="typeNS" route="down_a" depart="104"/>
    <vehicle id="up_66" type="typeNS" route="up_b" depart="104"/>
    <vehicle id="up_67" type="typeNS" route="down_b" depart="105"/>
    <vehicle id="right_68" type="typeWE" route="right" depart="106" />
    <vehicle id="up_69" type="typeNS" route="down_b" depart="106"/>
    <vehicle id="up_70" type="typeNS" route="down_b" depart="108"/>
    <vehicle id="up_71" type="typeNS" route="down_b" depart="111"/>
    <vehicle id="up_72" type="typeNS" route="down_b" depart="112"/>
    <vehicle id="up_73" type="typeNS" route="up_a" depart="114"/>
    <vehicle id="right_74" type="typeWE" route="right" depart="116" />
    <vehicle id="up_75" type="typeNS" route="up_b" depart="117"/>
    <vehicle id="up_76" type="typeNS" route="up_b" depart="119"/>
    <vehicle id="up_77" type="typeNS" route="down_b" depart="119"/>
    <vehicle id="down_78" type="typeNS" route="down_a" depart="122"/>
    <vehicle id="up_79" type="typeNS" route="up_b" depart="123"/>
    <vehicle id="up_80" type="typeNS" route="up_a" depart="126"/>
    <vehicle id="left_81" type="typeWE" route="left" depart="128" />
    <vehicle id="right_82" type="typeWE" route="right" depart="129" />
    <vehicle id="left_83" type="typeWE" route="left" depart="130" />
    <vehicle id="up_84" type="typeNS" route="down_b" depart="132"/>
    <vehicle id="down_85" type="typeNS" route="down_a" depart="134"/>
    <vehicle id="up_86" type="typeNS" route="down_b" depart="134"/>
    <vehicle id="up_87" type="typeNS" route="down_b" depart="137"/>
    <vehicle id="up_88" type="typeNS" route="down_b" depart="138"/>
    <vehicle id="down_89" type="typeNS" route="down_a" depart="142"/>
    <vehicle id="up_90" type="typeNS" route="up_b" depart="143"/>
    <vehicle id="right_91" type="typeWE" route="right" depart="144" />
    <vehicle id="up_92" type="typeNS" route="up_a" depart="146"/>
    <vehicle id="up_93" type="typeNS" route="up_b" depart="146"/>
    <vehicle id="up_94" type="typeNS" route="down_b" depart="146"/>
    <vehicle id="up_95" type="typeNS" route="down_b" depart="147"/>
    <vehicle id="down_96" type="typeNS" route="down_a" depart="148"/>
    <vehicle id="right_97" type="typeWE" route="right" depart="150" />
    <vehicle id="left_98" type="typeWE" route="left" depart="151" />
    <vehicle id="up_99" type="typeNS" route="up_b" depart="152"/>
    <vehicle id="right_100" type="typeWE" route="right" depart="153" />
    <vehicle id="up_101" type="typeNS" route="up_a" depart="154"/>
    <vehicle id="left_102" type="typeWE" route="left" depart="158" />
    <vehicle id="up_103" type="typeNS" route="up_b" depart="162"/>
    <vehicle id="up_104" type="typeNS" route="up_b" depart="164"/>
    <vehicle id="right_105" type="typeWE" route="right" depart="167" />
    <vehicle id="up_106" type="typeNS" route="up_a" depart="167"/>
    <vehicle id="up_107" type="typeNS" route="down_b" depart="167"/>
    <vehicle id="down_108" type="typeNS" route="down_a" depart="169"/>
    <vehicle id="up_109" type="typeNS" route="down_b" depart="169"/>
    <vehicle id="up_110" type="typeNS" route="up_b" depart="174"/>
    <vehicle id="right_111" type="typeWE" route="right" depart="175" />
    <vehicle id="up_112" type="typeNS" route="down_b" depart="175"/>
    <vehicle id="up_113" type="typeNS" route="up_a" depart="176"/>
    <vehicle id="down_114" type="typeNS" route="down_a" depart="178"/>
    <vehicle id="up_115" type="typeNS" route="down_b" depart="179"/>
    <vehicle id="right_116" type="typeWE" route="right" depart="180" />
    <vehicle id="down_117" type="typeNS" route="down_a" depart="187"/>
    <vehicle id="down_118" type="typeNS" route="down_a" depart="192"/>
    <vehicle id="down_119" type="typeNS" route="down_a" depart="193"/>
    <vehicle id="up_120" type="typeNS" route="up_a" depart="194"/>
    <vehicle id="up_121" type="typeNS" route="up_b" depart="195"/>
    <vehicle id="up_122" type="typeNS" route="up_a" depart="196"/>
    <vehicle id="up_123" type="typeNS" route="up_b" depart="196"/>
    <vehicle id="right_124" type="typeWE" route="right" depart="197" />
    <vehicle id="right_125" type="typeWE" route="right" depart="198" />
    <vehicle id="up_126" type="typeNS" route="up_a" depart="198"/>
    <vehicle id="right_127" type="typeWE" route="right" depart="199" />
    <vehicle id="up_128" type="typeNS" route="up_b" depart="200"/>
    <vehicle id="up_129" type="typeNS" route="up_a" depart="201"/>
    <vehicle id="up_130" type="typeNS" route="down_b" depart="201"/>
    <vehicle id="down_131" type="typeNS" route="down_a" depart="202"/>
    <vehicle id="up_132" type="typeNS" route="up_a" depart="202"/>
    <vehicle id="left_133" type="typeWE" route="left" depart="204" />
    <vehicle id="up_134" type="typeNS" route="up_a" depart="207"/>
    <vehicle id="up_135" type="typeNS" route="down_b" depart="207"/>
    <vehicle id="right_136" type="typeWE" route="right" depart="210" />
    <vehicle id="up_137" type="typeNS" route="up_b" depart="211"/>
    <vehicle id="up_138" type="typeNS" route="up_a" depart="213"/>
    <vehicle id="left_139" type="typeWE" route="left" depart="214" />
    <vehicle id="down_140" type="typeNS" route="down_a" depart="214"/>
    <vehicle id="up_141" type="typeNS" route="down_b" depart="214"/>
    <vehicle id="left_142" type="typeWE" route="left" depart="217" />
    <vehicle id="down_143" type="typeNS" route="down_a" depart="217"/>
    <vehicle id="up_144" type="typeNS" route="up_b" depart="217"/>
    <vehicle id="left_145" type="typeWE" route="left" depart="218" />
    <vehicle id="up_146" type="typeNS" route="down_b" depart="218"/>
    <vehicle id="right_147" type="typeWE" route="right" depart="220" />
    <vehicle id="right_148" type="typeWE" route="right" depart="221" />
    <vehicle id="up_149" type="typeNS" route="down_b" depart="222"/>
    <vehicle id="left_150" type="typeWE" route="left" depart="224" />
    <vehicle id="up_151" type="typeNS" route="up_a" depart="227"/>
    <vehicle id="right_152" type="typeWE" route="right" depart="228" />
    <vehicle id="left_153" type="typeWE" route="left" depart="229" />
    <vehicle id="up_154" type="typeNS" route="up_a" depart="229"/>
    <vehicle id="down_155" type="typeNS" route="down_a" depart="230"/>
    <vehicle id="up_156" type="typeNS" route="up_a" depart="231"/>
    <vehicle id="up_157" type="typeNS" route="up_b" depart="231"/>
    <vehicle id="up_158" type="typeNS" route="down_b" depart="235"/>
    <vehicle id="up_159" type="typeNS" route="up_a" depart="236"/>
    <vehicle id="up_160" type="typeNS" route="up_b" depart="238"/>
    <vehicle id="up_161" type="typeNS" route="down_b" depart="238"/>
    <vehicle id="up_162" type="typeNS" route="up_b" depart="239"/>
    <vehicle id="down_163" type="typeNS" route="down_a" depart="240"/>
    <vehicle id="up_164" type="typeNS" route="up_b" depart="243"/>
    <vehicle id="up_165" type="typeNS" route="up_b" depart="244"/>
    <vehicle id="left_166" type="typeWE" route="left" depart="246" />
    <vehicle id="left_167" type="typeWE" route="left" depart="250" />
    <vehicle id="up_168" type="typeNS" route="down_b" depart="251"/>
    <vehicle id="left_169" type="typeWE" route="left" depart="255" />
    <vehicle id="up_170" type="typeNS" route="up_b" depart="255"/>
    <vehicle id="up_171" type="typeNS" route="down_b" depart="256"/>
    <vehicle id="left_172" type="typeWE" route="left" depart="259" />
    <vehicle id="down_173" type="typeNS" route="down_a" depart="265"/>
    <vehicle id="up_174" type="typeNS" route="down_b" depart="267"/>
    <vehicle id="left_175" type="typeWE" route="left" depart="268" />
    <vehicle id="right_176" type="typeWE" route="right" depart="274" />
    <vehicle id="up_177" type="typeNS" route="up_b" depart="274"/>
    <vehicle id="down_178" type="typeNS" route="down_a" depart="275"/>
    <vehicle id="right_179" type="typeWE" route="right" depart="277" />
    <vehicle id="up_180" type="typeNS" route="down_b" depart="277"/>
    <vehicle id="up_181" type="typeNS" route="up_a" depart="279"/>
    <vehicle id="up_182" type="typeNS" route="down_b" depart="279"/>
    <vehicle id="right_183" type="typeWE" route="right" depart="281" />
    <vehicle id="up_184" type="typeNS" route="up_b" depart="281"/>
    <vehicle id="up_185" type="typeNS" route="up_b" depart="283"/>
    <vehicle id="left_186" type="typeWE" route="left" depart="284" />
    <vehicle id="up_187" type="typeNS" route="up_a" depart="284"/>
    <vehicle id="left_188" type="typeWE" route="left" depart="288" />
    <vehicle id="right_189" type="typeWE" route="right" depart="290" />
    <vehicle id="right_190" type="typeWE" route="right" depart="291" />
    <vehicle id="up_191" type="typeNS" route="up_b" depart="291"/>
    <vehicle id="right_192" type="typeWE" route="right" depart="292" />
    <vehicle id="up_193" type="typeNS" route="up_b" depart="292"/>
    <vehicle id="right_194" type="typeWE" route="right" depart="295" />
    <vehicle id="up_195" type="typeNS" route="up_b" depart="295"/>
    <vehicle id="right_196" type="typeWE" route="right" depart="296" />
</routes>
