<routes>
            <vType id="typeWE" accel="0.8" decel="4.5" sigma="0.5" length="5" minGap="2.5" maxSpeed="16.67" guiShape="passenger"/>
            <vType id="typeNS" accel="0.8" decel="4.5" sigma="0.5" length="5" minGap="2.5" maxSpeed="16.67" guiShape="passenger"/>
            <route id="right" edges="51o 1i_a 2o 1o_b 52o" />
            <route id="left" edges="52i 1i_b 2i 1o_a 51i" />
            <route id="up_a" edges="53o 3i_a 4o_a 54i" />
            <route id="down_a" edges="54o 4i_a 3o_a 53i" />
            <route id="up_b" edges="3i_b 4o_b" />
            <route id="down_b" edges="4i_b 3o_b" />
    <vehicle id="up_0" type="typeNS" route="up_a" depart="2"/>
    <vehicle id="right_1" type="typeWE" route="right" depart="5" />
    <vehicle id="up_2" type="typeNS" route="up_a" depart="8"/>
    <vehicle id="up_3" type="typeNS" route="down_b" depart="8"/>
    <vehicle id="left_4" type="typeWE" route="left" depart="11" />
    <vehicle id="up_5" type="typeNS" route="up_b" depart="11"/>
    <vehicle id="up_6" type="typeNS" route="up_b" depart="12"/>
    <vehicle id="right_7" type="typeWE" route="right" depart="13" />
    <vehicle id="right_8" type="typeWE" route="right" depart="19" />
    <vehicle id="up_9" type="typeNS" route="up_a" depart="20"/>
    <vehicle id="down_10" type="typeNS" route="down_a" depart="23"/>
    <vehicle id="up_11" type="typeNS" route="down_b" depart="24"/>
    <vehicle id="up_12" type="typeNS" route="up_a" depart="26"/>
    <vehicle id="left_13" type="typeWE" route="left" depart="27" />
    <vehicle id="down_14" type="typeNS" route="down_a" depart="27"/>
    <vehicle id="up_15" type="typeNS" route="down_b" depart="31"/>
    <vehicle id="up_16" type="typeNS" route="down_b" depart="32"/>
    <vehicle id="right_17" type="typeWE" route="right" depart="33" />
    <vehicle id="up_18" type="typeNS" route="down_b" depart="33"/>
    <vehicle id="down_19" type="typeNS" route="down_a" depart="34"/>
    <vehicle id="down_20" type="typeNS" route="down_a" depart="35"/>
    <vehicle id="up_21" type="typeNS" route="up_b" depart="35"/>
    <vehicle id="down_22" type="typeNS" route="down_a" depart="36"/>
    <vehicle id="left_23" type="typeWE" route="left" depart="38" />
    <vehicle id="up_24" type="typeNS" route="down_b" depart="38"/>
    <vehicle id="up_25" type="typeNS" route="down_b" depart="39"/>
    <vehicle id="right_26" type="typeWE" route="right" depart="40" />
    <vehicle id="left_27" type="typeWE" route="left" depart="44" />
    <vehicle id="up_28" type="typeNS" route="up_a" depart="45"/>
    <vehicle id="left_29" type="typeWE" route="left" depart="47" />
    <vehicle id="right_30" type="typeWE" route="right" depart="49" />
    <vehicle id="right_31" type="typeWE" route="right" depart="51" />
    <vehicle id="up_32" type="typeNS" route="up_b" depart="51"/>
    <vehicle id="up_33" type="typeNS" route="up_a" depart="55"/>
    <vehicle id="down_34" type="typeNS" route="down_a" depart="58"/>
    <vehicle id="down_35" type="typeNS" route="down_a" depart="60"/>
    <vehicle id="right_36" type="typeWE" route="right" depart="61" />
    <vehicle id="left_37" type="typeWE" route="left" depart="61" />
    <vehicle id="up_38" type="typeNS" route="up_b" depart="67"/>
    <vehicle id="up_39" type="typeNS" route="down_b" depart="68"/>
    <vehicle id="up_40" type="typeNS" route="up_b" depart="73"/>
    <vehicle id="up_41" type="typeNS" route="up_a" depart="74"/>
    <vehicle id="right_42" type="typeWE" route="right" depart="75" />
    <vehicle id="down_43" type="typeNS" route="down_a" depart="75"/>
    <vehicle id="up_44" type="typeNS" route="up_b" depart="75"/>
    <vehicle id="up_45" type="typeNS" route="up_a" depart="76"/>
    <vehicle id="right_46" type="typeWE" route="right" depart="77" />
    <vehicle id="up_47" type="typeNS" route="down_b" depart="77"/>
    <vehicle id="up_48" type="typeNS" route="up_a" depart="81"/>
    <vehicle id="down_49" type="typeNS" route="down_a" depart="83"/>
    <vehicle id="up_50" type="typeNS" route="up_a" depart="83"/>
    <vehicle id="up_51" type="typeNS" route="up_a" depart="85"/>
    <vehicle id="up_52" type="typeNS" route="up_b" depart="85"/>
    <vehicle id="right_53" type="typeWE" route="right" depart="87" />
    <vehicle id="up_54" type="typeNS" route="down_b" depart="87"/>
    <vehicle id="up_55" type="typeNS" route="up_a" depart="90"/>
    <vehicle id="up_56" type="typeNS" route="up_b" depart="95"/>
    <vehicle id="left_57" type="typeWE" route="left" depart="96" />
    <vehicle id="up_58" type="typeNS" route="up_a" depart="96"/>
    <vehicle id="right_59" type="typeWE" route="right" depart="97" />
    <vehicle id="up_60" type="typeNS" route="down_b" depart="97"/>
    <vehicle id="left_61" type="typeWE" route="left" depart="98" />
    <vehicle id="right_62" type="typeWE" route="right" depart="100" />
    <vehicle id="down_63" type="typeNS" route="down_a" depart="100"/>
    <vehicle id="up_64" type="typeNS" route="down_b" depart="101"/>
    <vehicle id="up_65" type="typeNS" route="down_b" depart="102"/>
    <vehicle id="left_66" type="typeWE" route="left" depart="103" />
    <vehicle id="up_67" type="typeNS" route="up_b" depart="103"/>
    <vehicle id="up_68" type="typeNS" route="down_b" depart="104"/>
    <vehicle id="up_69" type="typeNS" route="up_b" depart="105"/>
    <vehicle id="up_70" type="typeNS" route="up_a" depart="110"/>
    <vehicle id="right_71" type="typeWE" route="right" depart="112" />
    <vehicle id="left_72" type="typeWE" route="left" depart="114" />
    <vehicle id="down_73" type="typeNS" route="down_a" depart="115"/>
    <vehicle id="down_74" type="typeNS" route="down_a" depart="116"/>
    <vehicle id="left_75" type="typeWE" route="left" depart="117" />
    <vehicle id="left_76" type="typeWE" route="left" depart="118" />
    <vehicle id="up_77" type="typeNS" route="down_b" depart="118"/>
    <vehicle id="up_78" type="typeNS" route="up_b" depart="120"/>
    <vehicle id="right_79" type="typeWE" route="right" depart="123" />
    <vehicle id="up_80" type="typeNS" route="up_a" depart="123"/>
    <vehicle id="left_81" type="typeWE" route="left" depart="124" />
    <vehicle id="left_82" type="typeWE" route="left" depart="130" />
    <vehicle id="up_83" type="typeNS" route="up_a" depart="130"/>
    <vehicle id="up_84" type="typeNS" route="down_b" depart="132"/>
    <vehicle id="down_85" type="typeNS" route="down_a" depart="136"/>
    <vehicle id="left_86" type="typeWE" route="left" depart="137" />
    <vehicle id="left_87" type="typeWE" route="left" depart="138" />
    <vehicle id="up_88" type="typeNS" route="down_b" depart="140"/>
    <vehicle id="down_89" type="typeNS" route="down_a" depart="147"/>
    <vehicle id="right_90" type="typeWE" route="right" depart="149" />
    <vehicle id="up_91" type="typeNS" route="up_a" depart="150"/>
    <vehicle id="up_92" type="typeNS" route="down_b" depart="152"/>
    <vehicle id="left_93" type="typeWE" route="left" depart="153" />
    <vehicle id="up_94" type="typeNS" route="down_b" depart="155"/>
    <vehicle id="up_95" type="typeNS" route="up_a" depart="161"/>
    <vehicle id="up_96" type="typeNS" route="up_a" depart="165"/>
    <vehicle id="down_97" type="typeNS" route="down_a" depart="169"/>
    <vehicle id="left_98" type="typeWE" route="left" depart="170" />
    <vehicle id="up_99" type="typeNS" route="up_a" depart="170"/>
    <vehicle id="down_100" type="typeNS" route="down_a" depart="171"/>
    <vehicle id="right_101" type="typeWE" route="right" depart="176" />
    <vehicle id="up_102" type="typeNS" route="up_b" depart="178"/>
    <vehicle id="right_103" type="typeWE" route="right" depart="179" />
    <vehicle id="right_104" type="typeWE" route="right" depart="180" />
    <vehicle id="up_105" type="typeNS" route="up_a" depart="180"/>
    <vehicle id="up_106" type="typeNS" route="down_b" depart="181"/>
    <vehicle id="left_107" type="typeWE" route="left" depart="184" />
    <vehicle id="left_108" type="typeWE" route="left" depart="187" />
    <vehicle id="down_109" type="typeNS" route="down_a" depart="188"/>
    <vehicle id="down_110" type="typeNS" route="down_a" depart="191"/>
    <vehicle id="up_111" type="typeNS" route="down_b" depart="192"/>
    <vehicle id="up_112" type="typeNS" route="down_b" depart="193"/>
    <vehicle id="left_113" type="typeWE" route="left" depart="194" />
    <vehicle id="up_114" type="typeNS" route="down_b" depart="194"/>
    <vehicle id="down_115" type="typeNS" route="down_a" depart="196"/>
    <vehicle id="up_116" type="typeNS" route="up_b" depart="197"/>
    <vehicle id="left_117" type="typeWE" route="left" depart="201" />
    <vehicle id="down_118" type="typeNS" route="down_a" depart="201"/>
    <vehicle id="down_119" type="typeNS" route="down_a" depart="202"/>
    <vehicle id="up_120" type="typeNS" route="up_b" depart="202"/>
    <vehicle id="right_121" type="typeWE" route="right" depart="203" />
    <vehicle id="right_122" type="typeWE" route="right" depart="206" />
    <vehicle id="up_123" type="typeNS" route="up_b" depart="212"/>
    <vehicle id="up_124" type="typeNS" route="down_b" depart="212"/>
    <vehicle id="up_125" type="typeNS" route="up_b" depart="216"/>
    <vehicle id="up_126" type="typeNS" route="up_b" depart="218"/>
    <vehicle id="up_127" type="typeNS" route="up_a" depart="222"/>
    <vehicle id="left_128" type="typeWE" route="left" depart="223" />
    <vehicle id="left_129" type="typeWE" route="left" depart="228" />
    <vehicle id="up_130" type="typeNS" route="up_a" depart="231"/>
    <vehicle id="down_131" type="typeNS" route="down_a" depart="234"/>
    <vehicle id="up_132" type="typeNS" route="down_b" depart="235"/>
    <vehicle id="down_133" type="typeNS" route="down_a" depart="236"/>
    <vehicle id="right_134" type="typeWE" route="right" depart="238" />
    <vehicle id="left_135" type="typeWE" route="left" depart="238" />
    <vehicle id="down_136" type="typeNS" route="down_a" depart="239"/>
    <vehicle id="left_137" type="typeWE" route="left" depart="242" />
    <vehicle id="up_138" type="typeNS" route="up_a" depart="244"/>
    <vehicle id="left_139" type="typeWE" route="left" depart="246" />
    <vehicle id="left_140" type="typeWE" route="left" depart="247" />
    <vehicle id="down_141" type="typeNS" route="down_a" depart="248"/>
    <vehicle id="left_142" type="typeWE" route="left" depart="249" />
    <vehicle id="down_143" type="typeNS" route="down_a" depart="250"/>
    <vehicle id="left_144" type="typeWE" route="left" depart="252" />
    <vehicle id="right_145" type="typeWE" route="right" depart="253" />
    <vehicle id="up_146" type="typeNS" route="down_b" depart="253"/>
    <vehicle id="up_147" type="typeNS" route="up_b" depart="254"/>
    <vehicle id="left_148" type="typeWE" route="left" depart="255" />
    <vehicle id="right_149" type="typeWE" route="right" depart="259" />
    <vehicle id="up_150" type="typeNS" route="up_b" depart="261"/>
    <vehicle id="up_151" type="typeNS" route="down_b" depart="263"/>
    <vehicle id="left_152" type="typeWE" route="left" depart="268" />
    <vehicle id="left_153" type="typeWE" route="left" depart="270" />
    <vehicle id="up_154" type="typeNS" route="down_b" depart="272"/>
    <vehicle id="right_155" type="typeWE" route="right" depart="275" />
    <vehicle id="right_156" type="typeWE" route="right" depart="277" />
    <vehicle id="left_157" type="typeWE" route="left" depart="277" />
    <vehicle id="up_158" type="typeNS" route="up_b" depart="277"/>
    <vehicle id="up_159" type="typeNS" route="up_b" depart="278"/>
    <vehicle id="up_160" type="typeNS" route="up_b" depart="280"/>
    <vehicle id="down_161" type="typeNS" route="down_a" depart="282"/>
    <vehicle id="up_162" type="typeNS" route="up_b" depart="282"/>
    <vehicle id="left_163" type="typeWE" route="left" depart="283" />
    <vehicle id="left_164" type="typeWE" route="left" depart="285" />
    <vehicle id="up_165" type="typeNS" route="down_b" depart="285"/>
    <vehicle id="right_166" type="typeWE" route="right" depart="287" />
    <vehicle id="left_167" type="typeWE" route="left" depart="288" />
    <vehicle id="up_168" type="typeNS" route="up_b" depart="291"/>
    <vehicle id="down_169" type="typeNS" route="down_a" depart="294"/>
    <vehicle id="up_170" type="typeNS" route="up_b" depart="294"/>
    <vehicle id="up_171" type="typeNS" route="up_a" depart="296"/>
    <vehicle id="down_172" type="typeNS" route="down_a" depart="297"/>
    <vehicle id="left_173" type="typeWE" route="left" depart="298" />
    <vehicle id="down_174" type="typeNS" route="down_a" depart="299"/>
</routes>
